1



                                 *********************************************

                                    NUMERICAL ELECTROMAGNETICS CODE (NEC-2D)

                                 *********************************************




                                     - - - - COMMENTS - - - -


                                                                                                     
                                                                                                     




                                 - - - STRUCTURE SPECIFICATION - - -

                                     COORDINATES MUST BE INPUT IN
                                     METERS OR BE SCALED TO METERS
                                     BEFORE STRUCTURE INPUT IS ENDED


  WIRE                                                                               NO. OF    FIRST  LAST     TAG
  NO.        X1         Y1         Z1          X2         Y2         Z2      RADIUS   SEG.     SEG.   SEG.     NO.
     1    0.00000    0.00000   -2.50000     0.00000    0.00000    2.50000    0.01000     41        1    41       1
     2   30.00000    0.00000   -2.50000    30.00000    0.00000    2.50000    0.01000     41       42    82       2

   TOTAL SEGMENTS USED=   82     NO. SEG. IN A SYMMETRIC CELL=   82     SYMMETRY FLAG=  0


         - MULTIPLE WIRE JUNCTIONS -
 JUNCTION    SEGMENTS  (- FOR END 1, + FOR END 2)
  NONE




                                 - - - - SEGMENTATION DATA - - - -

                                        COORDINATES IN METERS

                         I+ AND I- INDICATE THE SEGMENTS BEFORE AND AFTER I


  SEG.   COORDINATES OF SEG. CENTER     SEG.     ORIENTATION ANGLES    WIRE    CONNECTION DATA   TAG
  NO.       X         Y         Z       LENGTH     ALPHA     BETA      RADIUS    I-   I    I+    NO.
     1   0.00000   0.00000  -2.43902   0.12195   90.00000   0.00000   0.01000     0    1    2      1
     2   0.00000   0.00000  -2.31707   0.12195   90.00000   0.00000   0.01000     1    2    3      1
     3   0.00000   0.00000  -2.19512   0.12195   90.00000   0.00000   0.01000     2    3    4      1
     4   0.00000   0.00000  -2.07317   0.12195   90.00000   0.00000   0.01000     3    4    5      1
     5   0.00000   0.00000  -1.95122   0.12195   90.00000   0.00000   0.01000     4    5    6      1
     6   0.00000   0.00000  -1.82927   0.12195   90.00000   0.00000   0.01000     5    6    7      1
     7   0.00000   0.00000  -1.70732   0.12195   90.00000   0.00000   0.01000     6    7    8      1
     8   0.00000   0.00000  -1.58537   0.12195   90.00000   0.00000   0.01000     7    8    9      1
     9   0.00000   0.00000  -1.46341   0.12195   90.00000   0.00000   0.01000     8    9   10      1
    10   0.00000   0.00000  -1.34146   0.12195   90.00000   0.00000   0.01000     9   10   11      1
    11   0.00000   0.00000  -1.21951   0.12195   90.00000   0.00000   0.01000    10   11   12      1
    12   0.00000   0.00000  -1.09756   0.12195   90.00000   0.00000   0.01000    11   12   13      1
    13   0.00000   0.00000  -0.97561   0.12195   90.00000   0.00000   0.01000    12   13   14      1
    14   0.00000   0.00000  -0.85366   0.12195   90.00000   0.00000   0.01000    13   14   15      1
    15   0.00000   0.00000  -0.73171   0.12195   90.00000   0.00000   0.01000    14   15   16      1
    16   0.00000   0.00000  -0.60976   0.12195   90.00000   0.00000   0.01000    15   16   17      1
    17   0.00000   0.00000  -0.48780   0.12195   90.00000   0.00000   0.01000    16   17   18      1
    18   0.00000   0.00000  -0.36585   0.12195   90.00000   0.00000   0.01000    17   18   19      1
    19   0.00000   0.00000  -0.24390   0.12195   90.00000   0.00000   0.01000    18   19   20      1
    20   0.00000   0.00000  -0.12195   0.12195   90.00000   0.00000   0.01000    19   20   21      1
    21   0.00000   0.00000   0.00000   0.12195   90.00000   0.00000   0.01000    20   21   22      1
    22   0.00000   0.00000   0.12195   0.12195   90.00000   0.00000   0.01000    21   22   23      1
    23   0.00000   0.00000   0.24390   0.12195   90.00000   0.00000   0.01000    22   23   24      1
    24   0.00000   0.00000   0.36585   0.12195   90.00000   0.00000   0.01000    23   24   25      1
    25   0.00000   0.00000   0.48780   0.12195   90.00000   0.00000   0.01000    24   25   26      1
    26   0.00000   0.00000   0.60976   0.12195   90.00000   0.00000   0.01000    25   26   27      1
    27   0.00000   0.00000   0.73171   0.12195   90.00000   0.00000   0.01000    26   27   28      1
    28   0.00000   0.00000   0.85366   0.12195   90.00000   0.00000   0.01000    27   28   29      1
    29   0.00000   0.00000   0.97561   0.12195   90.00000   0.00000   0.01000    28   29   30      1
    30   0.00000   0.00000   1.09756   0.12195   90.00000   0.00000   0.01000    29   30   31      1
    31   0.00000   0.00000   1.21951   0.12195   90.00000   0.00000   0.01000    30   31   32      1
    32   0.00000   0.00000   1.34146   0.12195   90.00000   0.00000   0.01000    31   32   33      1
    33   0.00000   0.00000   1.46341   0.12195   90.00000   0.00000   0.01000    32   33   34      1
    34   0.00000   0.00000   1.58537   0.12195   90.00000   0.00000   0.01000    33   34   35      1
    35   0.00000   0.00000   1.70732   0.12195   90.00000   0.00000   0.01000    34   35   36      1
    36   0.00000   0.00000   1.82927   0.12195   90.00000   0.00000   0.01000    35   36   37      1
    37   0.00000   0.00000   1.95122   0.12195   90.00000   0.00000   0.01000    36   37   38      1
    38   0.00000   0.00000   2.07317   0.12195   90.00000   0.00000   0.01000    37   38   39      1
    39   0.00000   0.00000   2.19512   0.12195   90.00000   0.00000   0.01000    38   39   40      1
    40   0.00000   0.00000   2.31707   0.12195   90.00000   0.00000   0.01000    39   40   41      1
    41   0.00000   0.00000   2.43902   0.12195   90.00000   0.00000   0.01000    40   41    0      1
    42  30.00000   0.00000  -2.43902   0.12195   90.00000   0.00000   0.01000     0   42   43      2
    43  30.00000   0.00000  -2.31707   0.12195   90.00000   0.00000   0.01000    42   43   44      2
    44  30.00000   0.00000  -2.19512   0.12195   90.00000   0.00000   0.01000    43   44   45      2
    45  30.00000   0.00000  -2.07317   0.12195   90.00000   0.00000   0.01000    44   45   46      2
    46  30.00000   0.00000  -1.95122   0.12195   90.00000   0.00000   0.01000    45   46   47      2
    47  30.00000   0.00000  -1.82927   0.12195   90.00000   0.00000   0.01000    46   47   48      2
    48  30.00000   0.00000  -1.70732   0.12195   90.00000   0.00000   0.01000    47   48   49      2
    49  30.00000   0.00000  -1.58537   0.12195   90.00000   0.00000   0.01000    48   49   50      2
    50  30.00000   0.00000  -1.46341   0.12195   90.00000   0.00000   0.01000    49   50   51      2
    51  30.00000   0.00000  -1.34146   0.12195   90.00000   0.00000   0.01000    50   51   52      2
    52  30.00000   0.00000  -1.21951   0.12195   90.00000   0.00000   0.01000    51   52   53      2
    53  30.00000   0.00000  -1.09756   0.12195   90.00000   0.00000   0.01000    52   53   54      2
    54  30.00000   0.00000  -0.97561   0.12195   90.00000   0.00000   0.01000    53   54   55      2
    55  30.00000   0.00000  -0.85366   0.12195   90.00000   0.00000   0.01000    54   55   56      2
    56  30.00000   0.00000  -0.73171   0.12195   90.00000   0.00000   0.01000    55   56   57      2
    57  30.00000   0.00000  -0.60976   0.12195   90.00000   0.00000   0.01000    56   57   58      2
    58  30.00000   0.00000  -0.48780   0.12195   90.00000   0.00000   0.01000    57   58   59      2
    59  30.00000   0.00000  -0.36585   0.12195   90.00000   0.00000   0.01000    58   59   60      2
    60  30.00000   0.00000  -0.24390   0.12195   90.00000   0.00000   0.01000    59   60   61      2
    61  30.00000   0.00000  -0.12195   0.12195   90.00000   0.00000   0.01000    60   61   62      2
    62  30.00000   0.00000   0.00000   0.12195   90.00000   0.00000   0.01000    61   62   63      2
    63  30.00000   0.00000   0.12195   0.12195   90.00000   0.00000   0.01000    62   63   64      2
    64  30.00000   0.00000   0.24390   0.12195   90.00000   0.00000   0.01000    63   64   65      2
    65  30.00000   0.00000   0.36585   0.12195   90.00000   0.00000   0.01000    64   65   66      2
    66  30.00000   0.00000   0.48780   0.12195   90.00000   0.00000   0.01000    65   66   67      2
    67  30.00000   0.00000   0.60976   0.12195   90.00000   0.00000   0.01000    66   67   68      2
    68  30.00000   0.00000   0.73171   0.12195   90.00000   0.00000   0.01000    67   68   69      2
    69  30.00000   0.00000   0.85366   0.12195   90.00000   0.00000   0.01000    68   69   70      2
    70  30.00000   0.00000   0.97561   0.12195   90.00000   0.00000   0.01000    69   70   71      2
    71  30.00000   0.00000   1.09756   0.12195   90.00000   0.00000   0.01000    70   71   72      2
    72  30.00000   0.00000   1.21951   0.12195   90.00000   0.00000   0.01000    71   72   73      2
    73  30.00000   0.00000   1.34146   0.12195   90.00000   0.00000   0.01000    72   73   74      2
    74  30.00000   0.00000   1.46341   0.12195   90.00000   0.00000   0.01000    73   74   75      2
    75  30.00000   0.00000   1.58537   0.12195   90.00000   0.00000   0.01000    74   75   76      2
    76  30.00000   0.00000   1.70732   0.12195   90.00000   0.00000   0.01000    75   76   77      2
    77  30.00000   0.00000   1.82927   0.12195   90.00000   0.00000   0.01000    76   77   78      2
    78  30.00000   0.00000   1.95122   0.12195   90.00000   0.00000   0.01000    77   78   79      2
    79  30.00000   0.00000   2.07317   0.12195   90.00000   0.00000   0.01000    78   79   80      2
    80  30.00000   0.00000   2.19512   0.12195   90.00000   0.00000   0.01000    79   80   81      2
    81  30.00000   0.00000   2.31707   0.12195   90.00000   0.00000   0.01000    80   81   82      2
    82  30.00000   0.00000   2.43902   0.12195   90.00000   0.00000   0.01000    81   82    0      2






 ***** DATA CARD NO.  1   GN  -1     0     0     0  0.00000E+00  0.00000E+00  0.00000E+00  0.00000E+00  0.00000E+00  0.00000E+00
 ***** DATA CARD NO.  2   EK   0     0     0     0  0.00000E+00  0.00000E+00  0.00000E+00  0.00000E+00  0.00000E+00  0.00000E+00
 ***** DATA CARD NO.  3   EX   0     1    21     0  1.00000E+00  0.00000E+00  0.00000E+00  0.00000E+00  0.00000E+00  0.00000E+00
 ***** DATA CARD NO.  4   FR   0     0     0     0  3.00000E+01  0.00000E+00  0.00000E+00  0.00000E+00  0.00000E+00  0.00000E+00
 ***** DATA CARD NO.  5   RP   0    37    73  1003 -1.80000E+02  0.00000E+00  5.00000E+00  5.00000E+00  0.00000E+00  0.00000E+00




                                 - - - - - - FREQUENCY - - - - - -

                                    FREQUENCY= 3.0000E+01 MHZ
                                    WAVELENGTH= 9.9933E+00 METERS




                    APPROXIMATE INTEGRATION EMPLOYED FOR SEGMENTS MORE THAN   1.000 WAVELENGTHS APART

                    THE EXTENDED THIN WIRE KERNEL WILL BE USED



                               - - - STRUCTURE IMPEDANCE LOADING - - -

                                   THIS STRUCTURE IS NOT LOADED



                                  - - - ANTENNA ENVIRONMENT - - -

                                            FREE SPACE



                                - - - MATRIX TIMING - - -

                        FILL=    0.000 SEC.,  FACTOR=    0.000 SEC.



                                          - - - ANTENNA INPUT PARAMETERS - - -

   TAG   SEG.    VOLTAGE (VOLTS)         CURRENT (AMPS)         IMPEDANCE (OHMS)        ADMITTANCE (MHOS)      POWER
   NO.   NO.    REAL        IMAG.       REAL        IMAG.       REAL        IMAG.       REAL        IMAG.     (WATTS)
     1    21 1.00000E+00 0.00000E+00 8.78855E-03-4.97291E-03 8.61890E+01 4.87691E+01 8.78855E-03-4.97291E-03 4.39427E-03



                             - - - CURRENTS AND LOCATION - - -

                                 DISTANCES IN WAVELENGTHS


  SEG.  TAG    COORD. OF SEG. CENTER     SEG.            - - - CURRENT (AMPS) - - -
  NO.   NO.     X        Y        Z      LENGTH     REAL        IMAG.       MAG.        PHASE
     1    1   0.0000   0.0000  -0.2441  0.01220   5.6739E-04 -4.4214E-04  7.1932E-04  -37.928
     2    1   0.0000   0.0000  -0.2319  0.01220   1.3613E-03 -1.0518E-03  1.7203E-03  -37.689
     3    1   0.0000   0.0000  -0.2197  0.01220   2.0629E-03 -1.5795E-03  2.5981E-03  -37.441
     4    1   0.0000   0.0000  -0.2075  0.01220   2.7267E-03 -2.0688E-03  3.4227E-03  -37.189
     5    1   0.0000   0.0000  -0.1953  0.01220   3.3601E-03 -2.5255E-03  4.2034E-03  -36.929
     6    1   0.0000   0.0000  -0.1830  0.01220   3.9654E-03 -2.9515E-03  4.9432E-03  -36.661
     7    1   0.0000   0.0000  -0.1708  0.01220   4.5424E-03 -3.3469E-03  5.6422E-03  -36.384
     8    1   0.0000   0.0000  -0.1586  0.01220   5.0901E-03 -3.7110E-03  6.2992E-03  -36.095
     9    1   0.0000   0.0000  -0.1464  0.01220   5.6069E-03 -4.0427E-03  6.9124E-03  -35.793
    10    1   0.0000   0.0000  -0.1342  0.01220   6.0911E-03 -4.3409E-03  7.4796E-03  -35.476
    11    1   0.0000   0.0000  -0.1220  0.01220   6.5407E-03 -4.6041E-03  7.9987E-03  -35.142
    12    1   0.0000   0.0000  -0.1098  0.01220   6.9541E-03 -4.8311E-03  8.4675E-03  -34.788
    13    1   0.0000   0.0000  -0.0976  0.01220   7.3292E-03 -5.0206E-03  8.8839E-03  -34.412
    14    1   0.0000   0.0000  -0.0854  0.01220   7.6645E-03 -5.1714E-03  9.2459E-03  -34.008
    15    1   0.0000   0.0000  -0.0732  0.01220   7.9584E-03 -5.2821E-03  9.5517E-03  -33.573
    16    1   0.0000   0.0000  -0.0610  0.01220   8.2094E-03 -5.3513E-03  9.7996E-03  -33.098
    17    1   0.0000   0.0000  -0.0488  0.01220   8.4166E-03 -5.3775E-03  9.9878E-03  -32.575
    18    1   0.0000   0.0000  -0.0366  0.01220   8.5787E-03 -5.3581E-03  1.0115E-02  -31.988
    19    1   0.0000   0.0000  -0.0244  0.01220   8.6951E-03 -5.2888E-03  1.0177E-02  -31.310
    20    1   0.0000   0.0000  -0.0122  0.01220   8.7652E-03 -5.1529E-03  1.0168E-02  -30.450
    21    1   0.0000   0.0000   0.0000  0.01220   8.7885E-03 -4.9729E-03  1.0098E-02  -29.503
    22    1   0.0000   0.0000   0.0122  0.01220   8.7652E-03 -5.1529E-03  1.0168E-02  -30.450
    23    1   0.0000   0.0000   0.0244  0.01220   8.6951E-03 -5.2888E-03  1.0177E-02  -31.310
    24    1   0.0000   0.0000   0.0366  0.01220   8.5787E-03 -5.3581E-03  1.0115E-02  -31.988
    25    1   0.0000   0.0000   0.0488  0.01220   8.4166E-03 -5.3775E-03  9.9878E-03  -32.575
    26    1   0.0000   0.0000   0.0610  0.01220   8.2094E-03 -5.3513E-03  9.7996E-03  -33.098
    27    1   0.0000   0.0000   0.0732  0.01220   7.9584E-03 -5.2821E-03  9.5517E-03  -33.573
    28    1   0.0000   0.0000   0.0854  0.01220   7.6645E-03 -5.1714E-03  9.2459E-03  -34.008
    29    1   0.0000   0.0000   0.0976  0.01220   7.3292E-03 -5.0206E-03  8.8839E-03  -34.412
    30    1   0.0000   0.0000   0.1098  0.01220   6.9541E-03 -4.8311E-03  8.4675E-03  -34.788
    31    1   0.0000   0.0000   0.1220  0.01220   6.5407E-03 -4.6041E-03  7.9987E-03  -35.142
    32    1   0.0000   0.0000   0.1342  0.01220   6.0911E-03 -4.3409E-03  7.4796E-03  -35.476
    33    1   0.0000   0.0000   0.1464  0.01220   5.6069E-03 -4.0427E-03  6.9124E-03  -35.793
    34    1   0.0000   0.0000   0.1586  0.01220   5.0901E-03 -3.7110E-03  6.2992E-03  -36.095
    35    1   0.0000   0.0000   0.1708  0.01220   4.5424E-03 -3.3469E-03  5.6422E-03  -36.384
    36    1   0.0000   0.0000   0.1830  0.01220   3.9654E-03 -2.9515E-03  4.9432E-03  -36.661
    37    1   0.0000   0.0000   0.1953  0.01220   3.3601E-03 -2.5255E-03  4.2034E-03  -36.929
    38    1   0.0000   0.0000   0.2075  0.01220   2.7267E-03 -2.0688E-03  3.4227E-03  -37.189
    39    1   0.0000   0.0000   0.2197  0.01220   2.0629E-03 -1.5795E-03  2.5981E-03  -37.441
    40    1   0.0000   0.0000   0.2319  0.01220   1.3613E-03 -1.0518E-03  1.7203E-03  -37.689
    41    1   0.0000   0.0000   0.2441  0.01220   5.6739E-04 -4.4214E-04  7.1932E-04  -37.928
    42    2   3.0020   0.0000  -0.2441  0.01220  -4.6864E-05 -1.4491E-05  4.9053E-05 -162.818
    43    2   3.0020   0.0000  -0.2319  0.01220  -1.1252E-04 -3.4649E-05  1.1773E-04 -162.884
    44    2   3.0020   0.0000  -0.2197  0.01220  -1.7062E-04 -5.2338E-05  1.7846E-04 -162.946
    45    2   3.0020   0.0000  -0.2075  0.01220  -2.2565E-04 -6.8977E-05  2.3596E-04 -163.003
    46    2   3.0020   0.0000  -0.1953  0.01220  -2.7823E-04 -8.4774E-05  2.9085E-04 -163.054
    47    2   3.0020   0.0000  -0.1830  0.01220  -3.2851E-04 -9.9798E-05  3.4333E-04 -163.102
    48    2   3.0020   0.0000  -0.1708  0.01220  -3.7648E-04 -1.1406E-04  3.9338E-04 -163.145
    49    2   3.0020   0.0000  -0.1586  0.01220  -4.2205E-04 -1.2755E-04  4.4091E-04 -163.184
    50    2   3.0020   0.0000  -0.1464  0.01220  -4.6509E-04 -1.4024E-04  4.8577E-04 -163.220
    51    2   3.0020   0.0000  -0.1342  0.01220  -5.0542E-04 -1.5209E-04  5.2781E-04 -163.253
    52    2   3.0020   0.0000  -0.1220  0.01220  -5.4291E-04 -1.6307E-04  5.6687E-04 -163.282
    53    2   3.0020   0.0000  -0.1098  0.01220  -5.7737E-04 -1.7313E-04  6.0277E-04 -163.308
    54    2   3.0020   0.0000  -0.0976  0.01220  -6.0867E-04 -1.8225E-04  6.3537E-04 -163.331
    55    2   3.0020   0.0000  -0.0854  0.01220  -6.3665E-04 -1.9039E-04  6.6451E-04 -163.351
    56    2   3.0020   0.0000  -0.0732  0.01220  -6.6119E-04 -1.9750E-04  6.9006E-04 -163.368
    57    2   3.0020   0.0000  -0.0610  0.01220  -6.8216E-04 -2.0358E-04  7.1189E-04 -163.383
    58    2   3.0020   0.0000  -0.0488  0.01220  -6.9946E-04 -2.0859E-04  7.2989E-04 -163.395
    59    2   3.0020   0.0000  -0.0366  0.01220  -7.1300E-04 -2.1250E-04  7.4399E-04 -163.404
    60    2   3.0020   0.0000  -0.0244  0.01220  -7.2272E-04 -2.1531E-04  7.5412E-04 -163.410
    61    2   3.0020   0.0000  -0.0122  0.01220  -7.2858E-04 -2.1700E-04  7.6021E-04 -163.414
    62    2   3.0020   0.0000   0.0000  0.01220  -7.3053E-04 -2.1757E-04  7.6224E-04 -163.416
    63    2   3.0020   0.0000   0.0122  0.01220  -7.2858E-04 -2.1700E-04  7.6021E-04 -163.414
    64    2   3.0020   0.0000   0.0244  0.01220  -7.2272E-04 -2.1531E-04  7.5412E-04 -163.410
    65    2   3.0020   0.0000   0.0366  0.01220  -7.1300E-04 -2.1250E-04  7.4399E-04 -163.404
    66    2   3.0020   0.0000   0.0488  0.01220  -6.9946E-04 -2.0859E-04  7.2989E-04 -163.395
    67    2   3.0020   0.0000   0.0610  0.01220  -6.8216E-04 -2.0358E-04  7.1189E-04 -163.383
    68    2   3.0020   0.0000   0.0732  0.01220  -6.6119E-04 -1.9750E-04  6.9006E-04 -163.368
    69    2   3.0020   0.0000   0.0854  0.01220  -6.3665E-04 -1.9039E-04  6.6451E-04 -163.351
    70    2   3.0020   0.0000   0.0976  0.01220  -6.0867E-04 -1.8225E-04  6.3537E-04 -163.331
    71    2   3.0020   0.0000   0.1098  0.01220  -5.7737E-04 -1.7313E-04  6.0277E-04 -163.308
    72    2   3.0020   0.0000   0.1220  0.01220  -5.4291E-04 -1.6307E-04  5.6687E-04 -163.282
    73    2   3.0020   0.0000   0.1342  0.01220  -5.0542E-04 -1.5209E-04  5.2781E-04 -163.253
    74    2   3.0020   0.0000   0.1464  0.01220  -4.6509E-04 -1.4024E-04  4.8577E-04 -163.220
    75    2   3.0020   0.0000   0.1586  0.01220  -4.2205E-04 -1.2755E-04  4.4091E-04 -163.184
    76    2   3.0020   0.0000   0.1708  0.01220  -3.7648E-04 -1.1406E-04  3.9338E-04 -163.145
    77    2   3.0020   0.0000   0.1830  0.01220  -3.2851E-04 -9.9798E-05  3.4333E-04 -163.102
    78    2   3.0020   0.0000   0.1953  0.01220  -2.7823E-04 -8.4774E-05  2.9085E-04 -163.054
    79    2   3.0020   0.0000   0.2075  0.01220  -2.2565E-04 -6.8977E-05  2.3596E-04 -163.003
    80    2   3.0020   0.0000   0.2197  0.01220  -1.7062E-04 -5.2338E-05  1.7846E-04 -162.946
    81    2   3.0020   0.0000   0.2319  0.01220  -1.1252E-04 -3.4649E-05  1.1773E-04 -162.884
    82    2   3.0020   0.0000   0.2441  0.01220  -4.6864E-05 -1.4491E-05  4.9053E-05 -162.818



                                        - - - POWER BUDGET - - -

                                           INPUT POWER   = 4.3943E-03 WATTS
                                           RADIATED POWER= 4.3943E-03 WATTS
                                           STRUCTURE LOSS= 0.0000E+00 WATTS
                                           NETWORK LOSS  = 0.0000E+00 WATTS
                                           EFFICIENCY    = 100.00 PERCENT



                                                - - - RADIATION PATTERNS - - -

  - - ANGLES - -           - POWER GAINS -       - - - POLARIZATION - - -    - - - E(THETA) - - -    - - - E(PHI) - - -
  THETA     PHI        VERT.   HOR.    TOTAL      AXIAL     TILT   SENSE     MAGNITUDE    PHASE      MAGNITUDE    PHASE 
 DEGREES  DEGREES       DB      DB      DB        RATIO     DEG.              VOLTS/M    DEGREES      VOLTS/M    DEGREES
 -180.00     0.00    -999.99 -999.99 -999.99    0.00000     0.00            4.93072E-12    53.33    0.00000E+00     0.00
 -175.00     0.00     -21.75 -999.99  -21.75    0.00000     0.00  LINEAR    4.19417E-02  -120.30    0.00000E+00     0.00
 -170.00     0.00     -14.80 -999.99  -14.80    0.00000     0.00  LINEAR    9.34018E-02  -120.71    0.00000E+00     0.00
 -165.00     0.00     -11.30 -999.99  -11.30    0.00000     0.00  LINEAR    1.39779E-01  -126.40    0.00000E+00     0.00
 -160.00     0.00      -9.65 -999.99   -9.65    0.00000     0.00  LINEAR    1.68990E-01  -126.26    0.00000E+00     0.00
 -155.00     0.00      -7.62 -999.99   -7.62    0.00000     0.00  LINEAR    2.13602E-01  -120.29    0.00000E+00     0.00
 -150.00     0.00      -5.15 -999.99   -5.15    0.00000     0.00  LINEAR    2.83701E-01  -120.48    0.00000E+00     0.00
 -145.00     0.00      -3.65 -999.99   -3.65    0.00000     0.00  LINEAR    3.37260E-01  -125.48    0.00000E+00     0.00
 -140.00     0.00      -3.13 -999.99   -3.13    0.00000     0.00  LINEAR    3.57864E-01  -127.68    0.00000E+00     0.00
 -135.00     0.00      -2.62 -999.99   -2.62    0.00000     0.00  LINEAR    3.79802E-01  -124.13    0.00000E+00     0.00
 -130.00     0.00      -1.40 -999.99   -1.40    0.00000     0.00  LINEAR    4.36760E-01  -120.09    0.00000E+00     0.00
 -125.00     0.00      -0.03 -999.99   -0.03    0.00000     0.00  LINEAR    5.11698E-01  -120.12    0.00000E+00     0.00
 -120.00     0.00       0.94 -999.99    0.94    0.00000     0.00  LINEAR    5.72244E-01  -122.83    0.00000E+00     0.00
 -115.00     0.00       1.45 -999.99    1.45    0.00000     0.00  LINEAR    6.06398E-01  -125.71    0.00000E+00     0.00
 -110.00     0.00       1.64 -999.99    1.64    0.00000     0.00  LINEAR    6.20087E-01  -127.49    0.00000E+00     0.00
 -105.00     0.00       1.70 -999.99    1.70    0.00000     0.00  LINEAR    6.24294E-01  -128.02    0.00000E+00     0.00
 -100.00     0.00       1.73 -999.99    1.73    0.00000     0.00  LINEAR    6.26337E-01  -127.80    0.00000E+00     0.00
  -95.00     0.00       1.75 -999.99    1.75    0.00000     0.00  LINEAR    6.28172E-01  -127.41    0.00000E+00     0.00
  -90.00     0.00       1.77 -999.99    1.77    0.00000     0.00  LINEAR    6.28996E-01  -127.23    0.00000E+00     0.00
  -85.00     0.00       1.75 -999.99    1.75    0.00000     0.00  LINEAR    6.28172E-01  -127.41    0.00000E+00     0.00
  -80.00     0.00       1.73 -999.99    1.73    0.00000     0.00  LINEAR    6.26337E-01  -127.80    0.00000E+00     0.00
  -75.00     0.00       1.70 -999.99    1.70    0.00000     0.00  LINEAR    6.24294E-01  -128.02    0.00000E+00     0.00
  -70.00     0.00       1.64 -999.99    1.64    0.00000     0.00  LINEAR    6.20087E-01  -127.49    0.00000E+00     0.00
  -65.00     0.00       1.45 -999.99    1.45    0.00000     0.00  LINEAR    6.06398E-01  -125.71    0.00000E+00     0.00
  -60.00     0.00       0.94 -999.99    0.94    0.00000     0.00  LINEAR    5.72244E-01  -122.83    0.00000E+00     0.00
  -55.00     0.00      -0.03 -999.99   -0.03    0.00000     0.00  LINEAR    5.11698E-01  -120.12    0.00000E+00     0.00
  -50.00     0.00      -1.40 -999.99   -1.40    0.00000     0.00  LINEAR    4.36760E-01  -120.09    0.00000E+00     0.00
  -45.00     0.00      -2.62 -999.99   -2.62    0.00000     0.00  LINEAR    3.79802E-01  -124.13    0.00000E+00     0.00
  -40.00     0.00      -3.13 -999.99   -3.13    0.00000     0.00  LINEAR    3.57864E-01  -127.68    0.00000E+00     0.00
  -35.00     0.00      -3.65 -999.99   -3.65    0.00000     0.00  LINEAR    3.37260E-01  -125.48    0.00000E+00     0.00
  -30.00     0.00      -5.15 -999.99   -5.15    0.00000     0.00  LINEAR    2.83701E-01  -120.48    0.00000E+00     0.00
  -25.00     0.00      -7.62 -999.99   -7.62    0.00000     0.00  LINEAR    2.13602E-01  -120.29    0.00000E+00     0.00
  -20.00     0.00      -9.65 -999.99   -9.65    0.00000     0.00  LINEAR    1.68990E-01  -126.26    0.00000E+00     0.00
  -15.00     0.00     -11.30 -999.99  -11.30    0.00000     0.00  LINEAR    1.39779E-01  -126.40    0.00000E+00     0.00
  -10.00     0.00     -14.80 -999.99  -14.80    0.00000     0.00  LINEAR    9.34018E-02  -120.71    0.00000E+00     0.00
   -5.00     0.00     -21.75 -999.99  -21.75    0.00000     0.00  LINEAR    4.19417E-02  -120.30    0.00000E+00     0.00
    0.00     0.00    -999.99 -999.99 -999.99    0.00000     0.00            0.00000E+00     0.00    0.00000E+00     0.00
 -180.00     5.00    -999.99 -999.99 -999.99    0.00000     0.00            4.93072E-12    53.33    0.00000E+00     0.00
 -175.00     5.00     -21.76 -999.99  -21.76    0.00000     0.00  LINEAR    4.19270E-02  -120.31    0.00000E+00     0.00
 -170.00     5.00     -14.81 -999.99  -14.81    0.00000     0.00  LINEAR    9.33504E-02  -120.67    0.00000E+00     0.00
 -165.00     5.00     -11.29 -999.99  -11.29    0.00000     0.00  LINEAR    1.39908E-01  -126.35    0.00000E+00     0.00
 -160.00     5.00      -9.64 -999.99   -9.64    0.00000     0.00  LINEAR    1.69211E-01  -126.34    0.00000E+00     0.00
 -155.00     5.00      -7.63 -999.99   -7.63    0.00000     0.00  LINEAR    2.13231E-01  -120.38    0.00000E+00     0.00
 -150.00     5.00      -5.17 -999.99   -5.17    0.00000     0.00  LINEAR    2.83182E-01  -120.39    0.00000E+00     0.00
 -145.00     5.00      -3.64 -999.99   -3.64    0.00000     0.00  LINEAR    3.37683E-01  -125.34    0.00000E+00     0.00
 -140.00     5.00      -3.10 -999.99   -3.10    0.00000     0.00  LINEAR    3.59060E-01  -127.71    0.00000E+00     0.00
 -135.00     5.00      -2.61 -999.99   -2.61    0.00000     0.00  LINEAR    3.80015E-01  -124.36    0.00000E+00     0.00
 -130.00     5.00      -1.43 -999.99   -1.43    0.00000     0.00  LINEAR    4.35212E-01  -120.21    0.00000E+00     0.00
 -125.00     5.00      -0.06 -999.99   -0.06    0.00000     0.00  LINEAR    5.09824E-01  -120.02    0.00000E+00     0.00
 -120.00     5.00       0.93 -999.99    0.93    0.00000     0.00  LINEAR    5.71614E-01  -122.60    0.00000E+00     0.00
 -115.00     5.00       1.46 -999.99    1.46    0.00000     0.00  LINEAR    6.07539E-01  -125.49    0.00000E+00     0.00
 -110.00     5.00       1.68 -999.99    1.68    0.00000     0.00  LINEAR    6.22598E-01  -127.36    0.00000E+00     0.00
 -105.00     5.00       1.74 -999.99    1.74    0.00000     0.00  LINEAR    6.27408E-01  -128.01    0.00000E+00     0.00
 -100.00     5.00       1.77 -999.99    1.77    0.00000     0.00  LINEAR    6.29452E-01  -127.89    0.00000E+00     0.00
  -95.00     5.00       1.79 -999.99    1.79    0.00000     0.00  LINEAR    6.31075E-01  -127.56    0.00000E+00     0.00
  -90.00     5.00       1.80 -999.99    1.80    0.00000     0.00  LINEAR    6.31792E-01  -127.41    0.00000E+00     0.00
  -85.00     5.00       1.79 -999.99    1.79    0.00000     0.00  LINEAR    6.31075E-01  -127.56    0.00000E+00     0.00
  -80.00     5.00       1.77 -999.99    1.77    0.00000     0.00  LINEAR    6.29452E-01  -127.89    0.00000E+00     0.00
  -75.00     5.00       1.74 -999.99    1.74    0.00000     0.00  LINEAR    6.27408E-01  -128.01    0.00000E+00     0.00
  -70.00     5.00       1.68 -999.99    1.68    0.00000     0.00  LINEAR    6.22598E-01  -127.36    0.00000E+00     0.00
  -65.00     5.00       1.46 -999.99    1.46    0.00000     0.00  LINEAR    6.07539E-01  -125.49    0.00000E+00     0.00
  -60.00     5.00       0.93 -999.99    0.93    0.00000     0.00  LINEAR    5.71614E-01  -122.60    0.00000E+00     0.00
  -55.00     5.00      -0.06 -999.99   -0.06    0.00000     0.00  LINEAR    5.09824E-01  -120.02    0.00000E+00     0.00
  -50.00     5.00      -1.43 -999.99   -1.43    0.00000     0.00  LINEAR    4.35212E-01  -120.21    0.00000E+00     0.00
  -45.00     5.00      -2.61 -999.99   -2.61    0.00000     0.00  LINEAR    3.80015E-01  -124.36    0.00000E+00     0.00
  -40.00     5.00      -3.10 -999.99   -3.10    0.00000     0.00  LINEAR    3.59060E-01  -127.71    0.00000E+00     0.00
  -35.00     5.00      -3.64 -999.99   -3.64    0.00000     0.00  LINEAR    3.37683E-01  -125.34    0.00000E+00     0.00
  -30.00     5.00      -5.17 -999.99   -5.17    0.00000     0.00  LINEAR    2.83182E-01  -120.39    0.00000E+00     0.00
  -25.00     5.00      -7.63 -999.99   -7.63    0.00000     0.00  LINEAR    2.13231E-01  -120.38    0.00000E+00     0.00
  -20.00     5.00      -9.64 -999.99   -9.64    0.00000     0.00  LINEAR    1.69211E-01  -126.34    0.00000E+00     0.00
  -15.00     5.00     -11.29 -999.99  -11.29    0.00000     0.00  LINEAR    1.39908E-01  -126.35    0.00000E+00     0.00
  -10.00     5.00     -14.81 -999.99  -14.81    0.00000     0.00  LINEAR    9.33504E-02  -120.67    0.00000E+00     0.00
   -5.00     5.00     -21.76 -999.99  -21.76    0.00000     0.00  LINEAR    4.19270E-02  -120.31    0.00000E+00     0.00
    0.00     5.00    -999.99 -999.99 -999.99    0.00000     0.00            0.00000E+00     0.00    0.00000E+00     0.00
 -180.00    10.00    -999.99 -999.99 -999.99    0.00000     0.00            4.93072E-12    53.33    0.00000E+00     0.00
 -175.00    10.00     -21.77 -999.99  -21.77    0.00000     0.00  LINEAR    4.18837E-02  -120.37    0.00000E+00     0.00
 -170.00    10.00     -14.82 -999.99  -14.82    0.00000     0.00  LINEAR    9.31922E-02  -120.56    0.00000E+00     0.00
 -165.00    10.00     -11.27 -999.99  -11.27    0.00000     0.00  LINEAR    1.40282E-01  -126.19    0.00000E+00     0.00
 -160.00    10.00      -9.60 -999.99   -9.60    0.00000     0.00  LINEAR    1.69905E-01  -126.56    0.00000E+00     0.00
 -155.00    10.00      -7.67 -999.99   -7.67    0.00000     0.00  LINEAR    2.12186E-01  -120.66    0.00000E+00     0.00
 -150.00    10.00      -5.22 -999.99   -5.22    0.00000     0.00  LINEAR    2.81533E-01  -120.12    0.00000E+00     0.00
 -145.00    10.00      -3.61 -999.99   -3.61    0.00000     0.00  LINEAR    3.38749E-01  -124.89    0.00000E+00     0.00
 -140.00    10.00      -3.02 -999.99   -3.02    0.00000     0.00  LINEAR    3.62673E-01  -127.74    0.00000E+00     0.00
 -135.00    10.00      -2.59 -999.99   -2.59    0.00000     0.00  LINEAR    3.81132E-01  -125.01    0.00000E+00     0.00
 -130.00    10.00      -1.52 -999.99   -1.52    0.00000     0.00  LINEAR    4.30925E-01  -120.64    0.00000E+00     0.00
 -125.00    10.00      -0.16 -999.99   -0.16    0.00000     0.00  LINEAR    5.03936E-01  -119.77    0.00000E+00     0.00
 -120.00    10.00       0.89 -999.99    0.89    0.00000     0.00  LINEAR    5.68944E-01  -121.93    0.00000E+00     0.00
 -115.00    10.00       1.50 -999.99    1.50    0.00000     0.00  LINEAR    6.10049E-01  -124.77    0.00000E+00     0.00
 -110.00    10.00       1.77 -999.99    1.77    0.00000     0.00  LINEAR    6.29469E-01  -126.87    0.00000E+00     0.00
 -105.00    10.00       1.87 -999.99    1.87    0.00000     0.00  LINEAR    6.36564E-01  -127.85    0.00000E+00     0.00
 -100.00    10.00       1.90 -999.99    1.90    0.00000     0.00  LINEAR    6.39090E-01  -128.03    0.00000E+00     0.00
  -95.00    10.00       1.92 -999.99    1.92    0.00000     0.00  LINEAR    6.40401E-01  -127.90    0.00000E+00     0.00
  -90.00    10.00       1.93 -999.99    1.93    0.00000     0.00  LINEAR    6.40904E-01  -127.81    0.00000E+00     0.00
  -85.00    10.00       1.92 -999.99    1.92    0.00000     0.00  LINEAR    6.40401E-01  -127.90    0.00000E+00     0.00
  -80.00    10.00       1.90 -999.99    1.90    0.00000     0.00  LINEAR    6.39090E-01  -128.03    0.00000E+00     0.00
  -75.00    10.00       1.87 -999.99    1.87    0.00000     0.00  LINEAR    6.36564E-01  -127.85    0.00000E+00     0.00
  -70.00    10.00       1.77 -999.99    1.77    0.00000     0.00  LINEAR    6.29469E-01  -126.87    0.00000E+00     0.00
  -65.00    10.00       1.50 -999.99    1.50    0.00000     0.00  LINEAR    6.10049E-01  -124.77    0.00000E+00     0.00
  -60.00    10.00       0.89 -999.99    0.89    0.00000     0.00  LINEAR    5.68944E-01  -121.93    0.00000E+00     0.00
  -55.00    10.00      -0.16 -999.99   -0.16    0.00000     0.00  LINEAR    5.03936E-01  -119.77    0.00000E+00     0.00
  -50.00    10.00      -1.52 -999.99   -1.52    0.00000     0.00  LINEAR    4.30925E-01  -120.64    0.00000E+00     0.00
  -45.00    10.00      -2.59 -999.99   -2.59    0.00000     0.00  LINEAR    3.81132E-01  -125.01    0.00000E+00     0.00
  -40.00    10.00      -3.02 -999.99   -3.02    0.00000     0.00  LINEAR    3.62673E-01  -127.74    0.00000E+00     0.00
  -35.00    10.00      -3.61 -999.99   -3.61    0.00000     0.00  LINEAR    3.38749E-01  -124.89    0.00000E+00     0.00
  -30.00    10.00      -5.22 -999.99   -5.22    0.00000     0.00  LINEAR    2.81533E-01  -120.12    0.00000E+00     0.00
  -25.00    10.00      -7.67 -999.99   -7.67    0.00000     0.00  LINEAR    2.12186E-01  -120.66    0.00000E+00     0.00
  -20.00    10.00      -9.60 -999.99   -9.60    0.00000     0.00  LINEAR    1.69905E-01  -126.56    0.00000E+00     0.00
  -15.00    10.00     -11.27 -999.99  -11.27    0.00000     0.00  LINEAR    1.40282E-01  -126.19    0.00000E+00     0.00
  -10.00    10.00     -14.82 -999.99  -14.82    0.00000     0.00  LINEAR    9.31922E-02  -120.56    0.00000E+00     0.00
   -5.00    10.00     -21.77 -999.99  -21.77    0.00000     0.00  LINEAR    4.18837E-02  -120.37    0.00000E+00     0.00
    0.00    10.00    -999.99 -999.99 -999.99    0.00000     0.00            0.00000E+00     0.00    0.00000E+00     0.00
 -180.00    15.00    -999.99 -999.99 -999.99    0.00000     0.00            4.93072E-12    53.33    0.00000E+00     0.00
 -175.00    15.00     -21.78 -999.99  -21.78    0.00000     0.00  LINEAR    4.18138E-02  -120.47    0.00000E+00     0.00
 -170.00    15.00     -14.85 -999.99  -14.85    0.00000     0.00  LINEAR    9.29163E-02  -120.38    0.00000E+00     0.00
 -165.00    15.00     -11.23 -999.99  -11.23    0.00000     0.00  LINEAR    1.40855E-01  -125.92    0.00000E+00     0.00
 -160.00    15.00      -9.54 -999.99   -9.54    0.00000     0.00  LINEAR    1.71159E-01  -126.88    0.00000E+00     0.00
 -155.00    15.00      -7.73 -999.99   -7.73    0.00000     0.00  LINEAR    2.10687E-01  -121.18    0.00000E+00     0.00
 -150.00    15.00      -5.31 -999.99   -5.31    0.00000     0.00  LINEAR    2.78533E-01  -119.76    0.00000E+00     0.00
 -145.00    15.00      -3.58 -999.99   -3.58    0.00000     0.00  LINEAR    3.39833E-01  -124.13    0.00000E+00     0.00
 -140.00    15.00      -2.88 -999.99   -2.88    0.00000     0.00  LINEAR    3.68626E-01  -127.63    0.00000E+00     0.00
 -135.00    15.00      -2.51 -999.99   -2.51    0.00000     0.00  LINEAR    3.84479E-01  -126.00    0.00000E+00     0.00
 -130.00    15.00      -1.63 -999.99   -1.63    0.00000     0.00  LINEAR    4.25243E-01  -121.55    0.00000E+00     0.00
 -125.00    15.00      -0.34 -999.99   -0.34    0.00000     0.00  LINEAR    4.93630E-01  -119.62    0.00000E+00     0.00
 -120.00    15.00       0.79 -999.99    0.79    0.00000     0.00  LINEAR    5.62111E-01  -120.95    0.00000E+00     0.00
 -115.00    15.00       1.51 -999.99    1.51    0.00000     0.00  LINEAR    6.11081E-01  -123.54    0.00000E+00     0.00
 -110.00    15.00       1.89 -999.99    1.89    0.00000     0.00  LINEAR    6.38231E-01  -125.83    0.00000E+00     0.00
 -105.00    15.00       2.06 -999.99    2.06    0.00000     0.00  LINEAR    6.50397E-01  -127.25    0.00000E+00     0.00
 -100.00    15.00       2.12 -999.99    2.12    0.00000     0.00  LINEAR    6.55135E-01  -127.87    0.00000E+00     0.00
  -95.00    15.00       2.14 -999.99    2.14    0.00000     0.00  LINEAR    6.56945E-01  -128.04    0.00000E+00     0.00
  -90.00    15.00       2.15 -999.99    2.15    0.00000     0.00  LINEAR    6.57452E-01  -128.06    0.00000E+00     0.00
  -85.00    15.00       2.14 -999.99    2.14    0.00000     0.00  LINEAR    6.56945E-01  -128.04    0.00000E+00     0.00
  -80.00    15.00       2.12 -999.99    2.12    0.00000     0.00  LINEAR    6.55135E-01  -127.87    0.00000E+00     0.00
  -75.00    15.00       2.06 -999.99    2.06    0.00000     0.00  LINEAR    6.50397E-01  -127.25    0.00000E+00     0.00
  -70.00    15.00       1.89 -999.99    1.89    0.00000     0.00  LINEAR    6.38231E-01  -125.83    0.00000E+00     0.00
  -65.00    15.00       1.51 -999.99    1.51    0.00000     0.00  LINEAR    6.11081E-01  -123.54    0.00000E+00     0.00
  -60.00    15.00       0.79 -999.99    0.79    0.00000     0.00  LINEAR    5.62111E-01  -120.95    0.00000E+00     0.00
  -55.00    15.00      -0.34 -999.99   -0.34    0.00000     0.00  LINEAR    4.93631E-01  -119.62    0.00000E+00     0.00
  -50.00    15.00      -1.63 -999.99   -1.63    0.00000     0.00  LINEAR    4.25243E-01  -121.55    0.00000E+00     0.00
  -45.00    15.00      -2.51 -999.99   -2.51    0.00000     0.00  LINEAR    3.84479E-01  -126.00    0.00000E+00     0.00
  -40.00    15.00      -2.88 -999.99   -2.88    0.00000     0.00  LINEAR    3.68626E-01  -127.63    0.00000E+00     0.00
  -35.00    15.00      -3.58 -999.99   -3.58    0.00000     0.00  LINEAR    3.39833E-01  -124.13    0.00000E+00     0.00
  -30.00    15.00      -5.31 -999.99   -5.31    0.00000     0.00  LINEAR    2.78533E-01  -119.76    0.00000E+00     0.00
  -25.00    15.00      -7.73 -999.99   -7.73    0.00000     0.00  LINEAR    2.10687E-01  -121.18    0.00000E+00     0.00
  -20.00    15.00      -9.54 -999.99   -9.54    0.00000     0.00  LINEAR    1.71159E-01  -126.88    0.00000E+00     0.00
  -15.00    15.00     -11.23 -999.99  -11.23    0.00000     0.00  LINEAR    1.40855E-01  -125.92    0.00000E+00     0.00
  -10.00    15.00     -14.85 -999.99  -14.85    0.00000     0.00  LINEAR    9.29163E-02  -120.38    0.00000E+00     0.00
   -5.00    15.00     -21.78 -999.99  -21.78    0.00000     0.00  LINEAR    4.18138E-02  -120.47    0.00000E+00     0.00
    0.00    15.00    -999.99 -999.99 -999.99    0.00000     0.00            0.00000E+00     0.00    0.00000E+00     0.00
 -180.00    20.00    -999.99 -999.99 -999.99    0.00000     0.00            4.93072E-12    53.33    0.00000E+00     0.00
 -175.00    20.00     -21.80 -999.99  -21.80    0.00000     0.00  LINEAR    4.17205E-02  -120.61    0.00000E+00     0.00
 -170.00    20.00     -14.88 -999.99  -14.88    0.00000     0.00  LINEAR    9.25062E-02  -120.16    0.00000E+00     0.00
 -165.00    20.00     -11.19 -999.99  -11.19    0.00000     0.00  LINEAR    1.41548E-01  -125.50    0.00000E+00     0.00
 -160.00    20.00      -9.44 -999.99   -9.44    0.00000     0.00  LINEAR    1.73080E-01  -127.22    0.00000E+00     0.00
 -155.00    20.00      -7.80 -999.99   -7.80    0.00000     0.00  LINEAR    2.09153E-01  -122.01    0.00000E+00     0.00
 -150.00    20.00      -5.45 -999.99   -5.45    0.00000     0.00  LINEAR    2.73956E-01  -119.44    0.00000E+00     0.00
 -145.00    20.00      -3.58 -999.99   -3.58    0.00000     0.00  LINEAR    3.39875E-01  -123.03    0.00000E+00     0.00
 -140.00    20.00      -2.70 -999.99   -2.70    0.00000     0.00  LINEAR    3.76322E-01  -127.15    0.00000E+00     0.00
 -135.00    20.00      -2.35 -999.99   -2.35    0.00000     0.00  LINEAR    3.91758E-01  -127.07    0.00000E+00     0.00
 -130.00    20.00      -1.72 -999.99   -1.72    0.00000     0.00  LINEAR    4.21071E-01  -123.12    0.00000E+00     0.00
 -125.00    20.00      -0.59 -999.99   -0.59    0.00000     0.00  LINEAR    4.79619E-01  -120.00    0.00000E+00     0.00
 -120.00    20.00       0.58 -999.99    0.58    0.00000     0.00  LINEAR    5.48625E-01  -119.99    0.00000E+00     0.00
 -115.00    20.00       1.44 -999.99    1.44    0.00000     0.00  LINEAR    6.05999E-01  -121.89    0.00000E+00     0.00
 -110.00    20.00       1.97 -999.99    1.97    0.00000     0.00  LINEAR    6.43704E-01  -124.12    0.00000E+00     0.00
 -105.00    20.00       2.24 -999.99    2.24    0.00000     0.00  LINEAR    6.64477E-01  -125.86    0.00000E+00     0.00
 -100.00    20.00       2.37 -999.99    2.37    0.00000     0.00  LINEAR    6.74474E-01  -126.91    0.00000E+00     0.00
  -95.00    20.00       2.43 -999.99    2.43    0.00000     0.00  LINEAR    6.78717E-01  -127.41    0.00000E+00     0.00
  -90.00    20.00       2.44 -999.99    2.44    0.00000     0.00  LINEAR    6.79877E-01  -127.55    0.00000E+00     0.00
  -85.00    20.00       2.43 -999.99    2.43    0.00000     0.00  LINEAR    6.78717E-01  -127.41    0.00000E+00     0.00
  -80.00    20.00       2.37 -999.99    2.37    0.00000     0.00  LINEAR    6.74474E-01  -126.91    0.00000E+00     0.00
  -75.00    20.00       2.24 -999.99    2.24    0.00000     0.00  LINEAR    6.64477E-01  -125.86    0.00000E+00     0.00
  -70.00    20.00       1.97 -999.99    1.97    0.00000     0.00  LINEAR    6.43704E-01  -124.12    0.00000E+00     0.00
  -65.00    20.00       1.44 -999.99    1.44    0.00000     0.00  LINEAR    6.05999E-01  -121.89    0.00000E+00     0.00
  -60.00    20.00       0.58 -999.99    0.58    0.00000     0.00  LINEAR    5.48625E-01  -119.99    0.00000E+00     0.00
  -55.00    20.00      -0.59 -999.99   -0.59    0.00000     0.00  LINEAR    4.79619E-01  -120.00    0.00000E+00     0.00
  -50.00    20.00      -1.72 -999.99   -1.72    0.00000     0.00  LINEAR    4.21071E-01  -123.12    0.00000E+00     0.00
  -45.00    20.00      -2.35 -999.99   -2.35    0.00000     0.00  LINEAR    3.91758E-01  -127.07    0.00000E+00     0.00
  -40.00    20.00      -2.70 -999.99   -2.70    0.00000     0.00  LINEAR    3.76322E-01  -127.15    0.00000E+00     0.00
  -35.00    20.00      -3.58 -999.99   -3.58    0.00000     0.00  LINEAR    3.39875E-01  -123.03    0.00000E+00     0.00
  -30.00    20.00      -5.45 -999.99   -5.45    0.00000     0.00  LINEAR    2.73956E-01  -119.44    0.00000E+00     0.00
  -25.00    20.00      -7.80 -999.99   -7.80    0.00000     0.00  LINEAR    2.09153E-01  -122.01    0.00000E+00     0.00
  -20.00    20.00      -9.44 -999.99   -9.44    0.00000     0.00  LINEAR    1.73080E-01  -127.22    0.00000E+00     0.00
  -15.00    20.00     -11.19 -999.99  -11.19    0.00000     0.00  LINEAR    1.41548E-01  -125.50    0.00000E+00     0.00
  -10.00    20.00     -14.88 -999.99  -14.88    0.00000     0.00  LINEAR    9.25062E-02  -120.16    0.00000E+00     0.00
   -5.00    20.00     -21.80 -999.99  -21.80    0.00000     0.00  LINEAR    4.17205E-02  -120.61    0.00000E+00     0.00
    0.00    20.00    -999.99 -999.99 -999.99    0.00000     0.00            0.00000E+00     0.00    0.00000E+00     0.00
 -180.00    25.00    -999.99 -999.99 -999.99    0.00000     0.00            4.93072E-12    53.33    0.00000E+00     0.00
 -175.00    25.00     -21.82 -999.99  -21.82    0.00000     0.00  LINEAR    4.16086E-02  -120.79    0.00000E+00     0.00
 -170.00    25.00     -14.94 -999.99  -14.94    0.00000     0.00  LINEAR    9.19429E-02  -119.90    0.00000E+00     0.00
 -165.00    25.00     -11.15 -999.99  -11.15    0.00000     0.00  LINEAR    1.42244E-01  -124.93    0.00000E+00     0.00
 -160.00    25.00      -9.31 -999.99   -9.31    0.00000     0.00  LINEAR    1.75735E-01  -127.49    0.00000E+00     0.00
 -155.00    25.00      -7.84 -999.99   -7.84    0.00000     0.00  LINEAR    2.08234E-01  -123.16    0.00000E+00     0.00
 -150.00    25.00      -5.65 -999.99   -5.65    0.00000     0.00  LINEAR    2.67828E-01  -119.38    0.00000E+00     0.00
 -145.00    25.00      -3.64 -999.99   -3.64    0.00000     0.00  LINEAR    3.37483E-01  -121.70    0.00000E+00     0.00
 -140.00    25.00      -2.52 -999.99   -2.52    0.00000     0.00  LINEAR    3.84149E-01  -126.08    0.00000E+00     0.00
 -135.00    25.00      -2.08 -999.99   -2.08    0.00000     0.00  LINEAR    4.03908E-01  -127.75    0.00000E+00     0.00
 -130.00    25.00      -1.68 -999.99   -1.68    0.00000     0.00  LINEAR    4.22901E-01  -125.23    0.00000E+00     0.00
 -125.00    25.00      -0.84 -999.99   -0.84    0.00000     0.00  LINEAR    4.65719E-01  -121.43    0.00000E+00     0.00
 -120.00    25.00       0.25 -999.99    0.25    0.00000     0.00  LINEAR    5.28043E-01  -119.71    0.00000E+00     0.00
 -115.00    25.00       1.21 -999.99    1.21    0.00000     0.00  LINEAR    5.90020E-01  -120.29    0.00000E+00     0.00
 -110.00    25.00       1.89 -999.99    1.89    0.00000     0.00  LINEAR    6.38304E-01  -121.92    0.00000E+00     0.00
 -105.00    25.00       2.32 -999.99    2.32    0.00000     0.00  LINEAR    6.70122E-01  -123.59    0.00000E+00     0.00
 -100.00    25.00       2.55 -999.99    2.55    0.00000     0.00  LINEAR    6.88503E-01  -124.85    0.00000E+00     0.00
  -95.00    25.00       2.66 -999.99    2.66    0.00000     0.00  LINEAR    6.97597E-01  -125.57    0.00000E+00     0.00
  -90.00    25.00       2.70 -999.99    2.70    0.00000     0.00  LINEAR    7.00300E-01  -125.80    0.00000E+00     0.00
  -85.00    25.00       2.66 -999.99    2.66    0.00000     0.00  LINEAR    6.97597E-01  -125.57    0.00000E+00     0.00
  -80.00    25.00       2.55 -999.99    2.55    0.00000     0.00  LINEAR    6.88503E-01  -124.85    0.00000E+00     0.00
  -75.00    25.00       2.32 -999.99    2.32    0.00000     0.00  LINEAR    6.70122E-01  -123.59    0.00000E+00     0.00
  -70.00    25.00       1.89 -999.99    1.89    0.00000     0.00  LINEAR    6.38304E-01  -121.92    0.00000E+00     0.00
  -65.00    25.00       1.21 -999.99    1.21    0.00000     0.00  LINEAR    5.90020E-01  -120.29    0.00000E+00     0.00
  -60.00    25.00       0.25 -999.99    0.25    0.00000     0.00  LINEAR    5.28043E-01  -119.71    0.00000E+00     0.00
  -55.00    25.00      -0.84 -999.99   -0.84    0.00000     0.00  LINEAR    4.65719E-01  -121.43    0.00000E+00     0.00
  -50.00    25.00      -1.68 -999.99   -1.68    0.00000     0.00  LINEAR    4.22901E-01  -125.23    0.00000E+00     0.00
  -45.00    25.00      -2.08 -999.99   -2.08    0.00000     0.00  LINEAR    4.03908E-01  -127.75    0.00000E+00     0.00
  -40.00    25.00      -2.52 -999.99   -2.52    0.00000     0.00  LINEAR    3.84149E-01  -126.08    0.00000E+00     0.00
  -35.00    25.00      -3.64 -999.99   -3.64    0.00000     0.00  LINEAR    3.37483E-01  -121.70    0.00000E+00     0.00
  -30.00    25.00      -5.65 -999.99   -5.65    0.00000     0.00  LINEAR    2.67828E-01  -119.38    0.00000E+00     0.00
  -25.00    25.00      -7.84 -999.99   -7.84    0.00000     0.00  LINEAR    2.08234E-01  -123.16    0.00000E+00     0.00
  -20.00    25.00      -9.31 -999.99   -9.31    0.00000     0.00  LINEAR    1.75735E-01  -127.49    0.00000E+00     0.00
  -15.00    25.00     -11.15 -999.99  -11.15    0.00000     0.00  LINEAR    1.42244E-01  -124.93    0.00000E+00     0.00
  -10.00    25.00     -14.94 -999.99  -14.94    0.00000     0.00  LINEAR    9.19429E-02  -119.90    0.00000E+00     0.00
   -5.00    25.00     -21.82 -999.99  -21.82    0.00000     0.00  LINEAR    4.16086E-02  -120.79    0.00000E+00     0.00
    0.00    25.00    -999.99 -999.99 -999.99    0.00000     0.00            0.00000E+00     0.00    0.00000E+00     0.00
 -180.00    30.00    -999.99 -999.99 -999.99    0.00000     0.00            4.93072E-12    53.33    0.00000E+00     0.00
 -175.00    30.00     -21.85 -999.99  -21.85    0.00000     0.00  LINEAR    4.14844E-02  -121.03    0.00000E+00     0.00
 -170.00    30.00     -15.01 -999.99  -15.01    0.00000     0.00  LINEAR    9.12098E-02  -119.63    0.00000E+00     0.00
 -165.00    30.00     -11.11 -999.99  -11.11    0.00000     0.00  LINEAR    1.42787E-01  -124.20    0.00000E+00     0.00
 -160.00    30.00      -9.15 -999.99   -9.15    0.00000     0.00  LINEAR    1.79078E-01  -127.56    0.00000E+00     0.00
 -155.00    30.00      -7.81 -999.99   -7.81    0.00000     0.00  LINEAR    2.08759E-01  -124.58    0.00000E+00     0.00
 -150.00    30.00      -5.88 -999.99   -5.88    0.00000     0.00  LINEAR    2.60779E-01  -119.86    0.00000E+00     0.00
 -145.00    30.00      -3.80 -999.99   -3.80    0.00000     0.00  LINEAR    3.31329E-01  -120.37    0.00000E+00     0.00
 -140.00    30.00      -2.40 -999.99   -2.40    0.00000     0.00  LINEAR    3.89249E-01  -124.36    0.00000E+00     0.00
 -135.00    30.00      -1.75 -999.99   -1.75    0.00000     0.00  LINEAR    4.19459E-01  -127.48    0.00000E+00     0.00
 -130.00    30.00      -1.44 -999.99   -1.44    0.00000     0.00  LINEAR    4.34774E-01  -127.17    0.00000E+00     0.00
 -125.00    30.00      -0.95 -999.99   -0.95    0.00000     0.00  LINEAR    4.60029E-01  -124.05    0.00000E+00     0.00
 -120.00    30.00      -0.12 -999.99   -0.12    0.00000     0.00  LINEAR    5.05988E-01  -120.99    0.00000E+00     0.00
 -115.00    30.00       0.80 -999.99    0.80    0.00000     0.00  LINEAR    5.62841E-01  -119.75    0.00000E+00     0.00
 -110.00    30.00       1.58 -999.99    1.58    0.00000     0.00  LINEAR    6.15941E-01  -120.06    0.00000E+00     0.00
 -105.00    30.00       2.14 -999.99    2.14    0.00000     0.00  LINEAR    6.57013E-01  -121.05    0.00000E+00     0.00
 -100.00    30.00       2.50 -999.99    2.50    0.00000     0.00  LINEAR    6.84382E-01  -122.04    0.00000E+00     0.00
  -95.00    30.00       2.69 -999.99    2.69    0.00000     0.00  LINEAR    6.99545E-01  -122.72    0.00000E+00     0.00
  -90.00    30.00       2.75 -999.99    2.75    0.00000     0.00  LINEAR    7.04350E-01  -122.95    0.00000E+00     0.00
  -85.00    30.00       2.69 -999.99    2.69    0.00000     0.00  LINEAR    6.99545E-01  -122.72    0.00000E+00     0.00
  -80.00    30.00       2.50 -999.99    2.50    0.00000     0.00  LINEAR    6.84382E-01  -122.04    0.00000E+00     0.00
  -75.00    30.00       2.14 -999.99    2.14    0.00000     0.00  LINEAR    6.57013E-01  -121.05    0.00000E+00     0.00
  -70.00    30.00       1.58 -999.99    1.58    0.00000     0.00  LINEAR    6.15941E-01  -120.06    0.00000E+00     0.00
  -65.00    30.00       0.80 -999.99    0.80    0.00000     0.00  LINEAR    5.62841E-01  -119.75    0.00000E+00     0.00
  -60.00    30.00      -0.12 -999.99   -0.12    0.00000     0.00  LINEAR    5.05988E-01  -120.99    0.00000E+00     0.00
  -55.00    30.00      -0.95 -999.99   -0.95    0.00000     0.00  LINEAR    4.60029E-01  -124.05    0.00000E+00     0.00
  -50.00    30.00      -1.44 -999.99   -1.44    0.00000     0.00  LINEAR    4.34774E-01  -127.17    0.00000E+00     0.00
  -45.00    30.00      -1.75 -999.99   -1.75    0.00000     0.00  LINEAR    4.19459E-01  -127.48    0.00000E+00     0.00
  -40.00    30.00      -2.40 -999.99   -2.40    0.00000     0.00  LINEAR    3.89249E-01  -124.36    0.00000E+00     0.00
  -35.00    30.00      -3.80 -999.99   -3.80    0.00000     0.00  LINEAR    3.31329E-01  -120.37    0.00000E+00     0.00
  -30.00    30.00      -5.88 -999.99   -5.88    0.00000     0.00  LINEAR    2.60779E-01  -119.86    0.00000E+00     0.00
  -25.00    30.00      -7.81 -999.99   -7.81    0.00000     0.00  LINEAR    2.08759E-01  -124.58    0.00000E+00     0.00
  -20.00    30.00      -9.15 -999.99   -9.15    0.00000     0.00  LINEAR    1.79078E-01  -127.56    0.00000E+00     0.00
  -15.00    30.00     -11.11 -999.99  -11.11    0.00000     0.00  LINEAR    1.42787E-01  -124.20    0.00000E+00     0.00
  -10.00    30.00     -15.01 -999.99  -15.01    0.00000     0.00  LINEAR    9.12098E-02  -119.63    0.00000E+00     0.00
   -5.00    30.00     -21.85 -999.99  -21.85    0.00000     0.00  LINEAR    4.14844E-02  -121.03    0.00000E+00     0.00
    0.00    30.00    -999.99 -999.99 -999.99    0.00000     0.00            0.00000E+00     0.00    0.00000E+00     0.00
 -180.00    35.00    -999.99 -999.99 -999.99    0.00000     0.00            4.93072E-12    53.33    0.00000E+00     0.00
 -175.00    35.00     -21.88 -999.99  -21.88    0.00000     0.00  LINEAR    4.13555E-02  -121.32    0.00000E+00     0.00
 -170.00    35.00     -15.09 -999.99  -15.09    0.00000     0.00  LINEAR    9.02974E-02  -119.40    0.00000E+00     0.00
 -165.00    35.00     -11.10 -999.99  -11.10    0.00000     0.00  LINEAR    1.42988E-01  -123.32    0.00000E+00     0.00
 -160.00    35.00      -8.96 -999.99   -8.96    0.00000     0.00  LINEAR    1.82877E-01  -127.29    0.00000E+00     0.00
 -155.00    35.00      -7.70 -999.99   -7.70    0.00000     0.00  LINEAR    2.11510E-01  -126.04    0.00000E+00     0.00
 -150.00    35.00      -6.10 -999.99   -6.10    0.00000     0.00  LINEAR    2.54389E-01  -121.14    0.00000E+00     0.00
 -145.00    35.00      -4.08 -999.99   -4.08    0.00000     0.00  LINEAR    3.20970E-01  -119.49    0.00000E+00     0.00
 -140.00    35.00      -2.43 -999.99   -2.43    0.00000     0.00  LINEAR    3.88060E-01  -122.20    0.00000E+00     0.00
 -135.00    35.00      -1.47 -999.99   -1.47    0.00000     0.00  LINEAR    4.33471E-01  -125.93    0.00000E+00     0.00
 -130.00    35.00      -1.03 -999.99   -1.03    0.00000     0.00  LINEAR    4.55910E-01  -127.82    0.00000E+00     0.00
 -125.00    35.00      -0.74 -999.99   -0.74    0.00000     0.00  LINEAR    4.71211E-01  -126.84    0.00000E+00     0.00
 -120.00    35.00      -0.29 -999.99   -0.29    0.00000     0.00  LINEAR    4.96437E-01  -124.09    0.00000E+00     0.00
 -115.00    35.00       0.37 -999.99    0.37    0.00000     0.00  LINEAR    5.35697E-01  -121.52    0.00000E+00     0.00
 -110.00    35.00       1.08 -999.99    1.08    0.00000     0.00  LINEAR    5.81063E-01  -120.13    0.00000E+00     0.00
 -105.00    35.00       1.68 -999.99    1.68    0.00000     0.00  LINEAR    6.22578E-01  -119.77    0.00000E+00     0.00
 -100.00    35.00       2.11 -999.99    2.11    0.00000     0.00  LINEAR    6.54071E-01  -119.94    0.00000E+00     0.00
  -95.00    35.00       2.36 -999.99    2.36    0.00000     0.00  LINEAR    6.73194E-01  -120.19    0.00000E+00     0.00
  -90.00    35.00       2.44 -999.99    2.44    0.00000     0.00  LINEAR    6.79554E-01  -120.30    0.00000E+00     0.00
  -85.00    35.00       2.36 -999.99    2.36    0.00000     0.00  LINEAR    6.73194E-01  -120.19    0.00000E+00     0.00
  -80.00    35.00       2.11 -999.99    2.11    0.00000     0.00  LINEAR    6.54071E-01  -119.94    0.00000E+00     0.00
  -75.00    35.00       1.68 -999.99    1.68    0.00000     0.00  LINEAR    6.22578E-01  -119.77    0.00000E+00     0.00
  -70.00    35.00       1.08 -999.99    1.08    0.00000     0.00  LINEAR    5.81063E-01  -120.13    0.00000E+00     0.00
  -65.00    35.00       0.37 -999.99    0.37    0.00000     0.00  LINEAR    5.35697E-01  -121.52    0.00000E+00     0.00
  -60.00    35.00      -0.29 -999.99   -0.29    0.00000     0.00  LINEAR    4.96437E-01  -124.09    0.00000E+00     0.00
  -55.00    35.00      -0.74 -999.99   -0.74    0.00000     0.00  LINEAR    4.71211E-01  -126.84    0.00000E+00     0.00
  -50.00    35.00      -1.03 -999.99   -1.03    0.00000     0.00  LINEAR    4.55910E-01  -127.82    0.00000E+00     0.00
  -45.00    35.00      -1.47 -999.99   -1.47    0.00000     0.00  LINEAR    4.33471E-01  -125.93    0.00000E+00     0.00
  -40.00    35.00      -2.43 -999.99   -2.43    0.00000     0.00  LINEAR    3.88060E-01  -122.20    0.00000E+00     0.00
  -35.00    35.00      -4.08 -999.99   -4.08    0.00000     0.00  LINEAR    3.20970E-01  -119.49    0.00000E+00     0.00
  -30.00    35.00      -6.10 -999.99   -6.10    0.00000     0.00  LINEAR    2.54389E-01  -121.14    0.00000E+00     0.00
  -25.00    35.00      -7.70 -999.99   -7.70    0.00000     0.00  LINEAR    2.11510E-01  -126.04    0.00000E+00     0.00
  -20.00    35.00      -8.96 -999.99   -8.96    0.00000     0.00  LINEAR    1.82877E-01  -127.29    0.00000E+00     0.00
  -15.00    35.00     -11.10 -999.99  -11.10    0.00000     0.00  LINEAR    1.42988E-01  -123.32    0.00000E+00     0.00
  -10.00    35.00     -15.09 -999.99  -15.09    0.00000     0.00  LINEAR    9.02974E-02  -119.40    0.00000E+00     0.00
   -5.00    35.00     -21.88 -999.99  -21.88    0.00000     0.00  LINEAR    4.13555E-02  -121.32    0.00000E+00     0.00
    0.00    35.00    -999.99 -999.99 -999.99    0.00000     0.00            0.00000E+00     0.00    0.00000E+00     0.00
 -180.00    40.00    -999.99 -999.99 -999.99    0.00000     0.00            4.93072E-12    53.33    0.00000E+00     0.00
 -175.00    40.00     -21.90 -999.99  -21.90    0.00000     0.00  LINEAR    4.12309E-02  -121.67    0.00000E+00     0.00
 -170.00    40.00     -15.20 -999.99  -15.20    0.00000     0.00  LINEAR    8.92108E-02  -119.25    0.00000E+00     0.00
 -165.00    40.00     -11.12 -999.99  -11.12    0.00000     0.00  LINEAR    1.42650E-01  -122.33    0.00000E+00     0.00
 -160.00    40.00      -8.79 -999.99   -8.79    0.00000     0.00  LINEAR    1.86669E-01  -126.59    0.00000E+00     0.00
 -155.00    40.00      -7.48 -999.99   -7.48    0.00000     0.00  LINEAR    2.16831E-01  -127.18    0.00000E+00     0.00
 -150.00    40.00      -6.21 -999.99   -6.21    0.00000     0.00  LINEAR    2.51161E-01  -123.21    0.00000E+00     0.00
 -145.00    40.00      -4.44 -999.99   -4.44    0.00000     0.00  LINEAR    3.08034E-01  -119.70    0.00000E+00     0.00
 -140.00    40.00      -2.66 -999.99   -2.66    0.00000     0.00  LINEAR    3.77996E-01  -120.22    0.00000E+00     0.00
 -135.00    40.00      -1.37 -999.99   -1.37    0.00000     0.00  LINEAR    4.38559E-01  -123.32    0.00000E+00     0.00
 -130.00    40.00      -0.63 -999.99   -0.63    0.00000     0.00  LINEAR    4.77602E-01  -126.42    0.00000E+00     0.00
 -125.00    40.00      -0.26 -999.99   -0.26    0.00000     0.00  LINEAR    4.98371E-01  -127.86    0.00000E+00     0.00
 -120.00    40.00      -0.01 -999.99   -0.01    0.00000     0.00  LINEAR    5.12905E-01  -127.26    0.00000E+00     0.00
 -115.00    40.00       0.31 -999.99    0.31    0.00000     0.00  LINEAR    5.31817E-01  -125.37    0.00000E+00     0.00
 -110.00    40.00       0.72 -999.99    0.72    0.00000     0.00  LINEAR    5.57732E-01  -123.30    0.00000E+00     0.00
 -105.00    40.00       1.16 -999.99    1.16    0.00000     0.00  LINEAR    5.86358E-01  -121.76    0.00000E+00     0.00
 -100.00    40.00       1.52 -999.99    1.52    0.00000     0.00  LINEAR    6.11455E-01  -120.86    0.00000E+00     0.00
  -95.00    40.00       1.75 -999.99    1.75    0.00000     0.00  LINEAR    6.28228E-01  -120.45    0.00000E+00     0.00
  -90.00    40.00       1.84 -999.99    1.84    0.00000     0.00  LINEAR    6.34080E-01  -120.33    0.00000E+00     0.00
  -85.00    40.00       1.75 -999.99    1.75    0.00000     0.00  LINEAR    6.28228E-01  -120.45    0.00000E+00     0.00
  -80.00    40.00       1.52 -999.99    1.52    0.00000     0.00  LINEAR    6.11455E-01  -120.86    0.00000E+00     0.00
  -75.00    40.00       1.16 -999.99    1.16    0.00000     0.00  LINEAR    5.86358E-01  -121.76    0.00000E+00     0.00
  -70.00    40.00       0.72 -999.99    0.72    0.00000     0.00  LINEAR    5.57732E-01  -123.30    0.00000E+00     0.00
  -65.00    40.00       0.31 -999.99    0.31    0.00000     0.00  LINEAR    5.31817E-01  -125.37    0.00000E+00     0.00
  -60.00    40.00      -0.01 -999.99   -0.01    0.00000     0.00  LINEAR    5.12905E-01  -127.26    0.00000E+00     0.00
  -55.00    40.00      -0.26 -999.99   -0.26    0.00000     0.00  LINEAR    4.98371E-01  -127.86    0.00000E+00     0.00
  -50.00    40.00      -0.63 -999.99   -0.63    0.00000     0.00  LINEAR    4.77602E-01  -126.42    0.00000E+00     0.00
  -45.00    40.00      -1.37 -999.99   -1.37    0.00000     0.00  LINEAR    4.38559E-01  -123.32    0.00000E+00     0.00
  -40.00    40.00      -2.66 -999.99   -2.66    0.00000     0.00  LINEAR    3.77996E-01  -120.22    0.00000E+00     0.00
  -35.00    40.00      -4.44 -999.99   -4.44    0.00000     0.00  LINEAR    3.08034E-01  -119.70    0.00000E+00     0.00
  -30.00    40.00      -6.21 -999.99   -6.21    0.00000     0.00  LINEAR    2.51161E-01  -123.21    0.00000E+00     0.00
  -25.00    40.00      -7.48 -999.99   -7.48    0.00000     0.00  LINEAR    2.16831E-01  -127.18    0.00000E+00     0.00
  -20.00    40.00      -8.79 -999.99   -8.79    0.00000     0.00  LINEAR    1.86669E-01  -126.59    0.00000E+00     0.00
  -15.00    40.00     -11.12 -999.99  -11.12    0.00000     0.00  LINEAR    1.42650E-01  -122.33    0.00000E+00     0.00
  -10.00    40.00     -15.20 -999.99  -15.20    0.00000     0.00  LINEAR    8.92108E-02  -119.25    0.00000E+00     0.00
   -5.00    40.00     -21.90 -999.99  -21.90    0.00000     0.00  LINEAR    4.12309E-02  -121.67    0.00000E+00     0.00
    0.00    40.00    -999.99 -999.99 -999.99    0.00000     0.00            0.00000E+00     0.00    0.00000E+00     0.00
 -180.00    45.00    -999.99 -999.99 -999.99    0.00000     0.00            4.93072E-12    53.33    0.00000E+00     0.00
 -175.00    45.00     -21.93 -999.99  -21.93    0.00000     0.00  LINEAR    4.11206E-02  -122.07    0.00000E+00     0.00
 -170.00    45.00     -15.32 -999.99  -15.32    0.00000     0.00  LINEAR    8.79758E-02  -119.21    0.00000E+00     0.00
 -165.00    45.00     -11.19 -999.99  -11.19    0.00000     0.00  LINEAR    1.41593E-01  -121.30    0.00000E+00     0.00
 -160.00    45.00      -8.64 -999.99   -8.64    0.00000     0.00  LINEAR    1.89781E-01  -125.44    0.00000E+00     0.00
 -155.00    45.00      -7.19 -999.99   -7.19    0.00000     0.00  LINEAR    2.24213E-01  -127.60    0.00000E+00     0.00
 -150.00    45.00      -6.12 -999.99   -6.12    0.00000     0.00  LINEAR    2.53586E-01  -125.58    0.00000E+00     0.00
 -145.00    45.00      -4.75 -999.99   -4.75    0.00000     0.00  LINEAR    2.97139E-01  -121.47    0.00000E+00     0.00
 -140.00    45.00      -3.07 -999.99   -3.07    0.00000     0.00  LINEAR    3.60277E-01  -119.48    0.00000E+00     0.00
 -135.00    45.00      -1.56 -999.99   -1.56    0.00000     0.00  LINEAR    4.28721E-01  -120.63    0.00000E+00     0.00
 -130.00    45.00      -0.47 -999.99   -0.47    0.00000     0.00  LINEAR    4.86048E-01  -123.37    0.00000E+00     0.00
 -125.00    45.00       0.20 -999.99    0.20    0.00000     0.00  LINEAR    5.25146E-01  -126.02    0.00000E+00     0.00
 -120.00    45.00       0.58 -999.99    0.58    0.00000     0.00  LINEAR    5.48432E-01  -127.61    0.00000E+00     0.00
 -115.00    45.00       0.80 -999.99    0.80    0.00000     0.00  LINEAR    5.63007E-01  -127.93    0.00000E+00     0.00
 -110.00    45.00       0.99 -999.99    0.99    0.00000     0.00  LINEAR    5.75259E-01  -127.29    0.00000E+00     0.00
 -105.00    45.00       1.18 -999.99    1.18    0.00000     0.00  LINEAR    5.87801E-01  -126.25    0.00000E+00     0.00
 -100.00    45.00       1.35 -999.99    1.35    0.00000     0.00  LINEAR    5.99656E-01  -125.29    0.00000E+00     0.00
  -95.00    45.00       1.47 -999.99    1.47    0.00000     0.00  LINEAR    6.08267E-01  -124.65    0.00000E+00     0.00
  -90.00    45.00       1.52 -999.99    1.52    0.00000     0.00  LINEAR    6.11416E-01  -124.43    0.00000E+00     0.00
  -85.00    45.00       1.47 -999.99    1.47    0.00000     0.00  LINEAR    6.08267E-01  -124.65    0.00000E+00     0.00
  -80.00    45.00       1.35 -999.99    1.35    0.00000     0.00  LINEAR    5.99656E-01  -125.29    0.00000E+00     0.00
  -75.00    45.00       1.18 -999.99    1.18    0.00000     0.00  LINEAR    5.87801E-01  -126.25    0.00000E+00     0.00
  -70.00    45.00       0.99 -999.99    0.99    0.00000     0.00  LINEAR    5.75259E-01  -127.29    0.00000E+00     0.00
  -65.00    45.00       0.80 -999.99    0.80    0.00000     0.00  LINEAR    5.63007E-01  -127.93    0.00000E+00     0.00
  -60.00    45.00       0.58 -999.99    0.58    0.00000     0.00  LINEAR    5.48432E-01  -127.61    0.00000E+00     0.00
  -55.00    45.00       0.20 -999.99    0.20    0.00000     0.00  LINEAR    5.25146E-01  -126.02    0.00000E+00     0.00
  -50.00    45.00      -0.47 -999.99   -0.47    0.00000     0.00  LINEAR    4.86048E-01  -123.37    0.00000E+00     0.00
  -45.00    45.00      -1.56 -999.99   -1.56    0.00000     0.00  LINEAR    4.28721E-01  -120.63    0.00000E+00     0.00
  -40.00    45.00      -3.07 -999.99   -3.07    0.00000     0.00  LINEAR    3.60277E-01  -119.48    0.00000E+00     0.00
  -35.00    45.00      -4.75 -999.99   -4.75    0.00000     0.00  LINEAR    2.97139E-01  -121.47    0.00000E+00     0.00
  -30.00    45.00      -6.12 -999.99   -6.12    0.00000     0.00  LINEAR    2.53586E-01  -125.58    0.00000E+00     0.00
  -25.00    45.00      -7.19 -999.99   -7.19    0.00000     0.00  LINEAR    2.24213E-01  -127.60    0.00000E+00     0.00
  -20.00    45.00      -8.64 -999.99   -8.64    0.00000     0.00  LINEAR    1.89781E-01  -125.44    0.00000E+00     0.00
  -15.00    45.00     -11.19 -999.99  -11.19    0.00000     0.00  LINEAR    1.41593E-01  -121.30    0.00000E+00     0.00
  -10.00    45.00     -15.32 -999.99  -15.32    0.00000     0.00  LINEAR    8.79758E-02  -119.21    0.00000E+00     0.00
   -5.00    45.00     -21.93 -999.99  -21.93    0.00000     0.00  LINEAR    4.11206E-02  -122.07    0.00000E+00     0.00
    0.00    45.00    -999.99 -999.99 -999.99    0.00000     0.00            0.00000E+00     0.00    0.00000E+00     0.00
 -180.00    50.00    -999.99 -999.99 -999.99    0.00000     0.00            4.93072E-12    53.33    0.00000E+00     0.00
 -175.00    50.00     -21.94 -999.99  -21.94    0.00000     0.00  LINEAR    4.10353E-02  -122.53    0.00000E+00     0.00
 -170.00    50.00     -15.45 -999.99  -15.45    0.00000     0.00  LINEAR    8.66450E-02  -119.36    0.00000E+00     0.00
 -165.00    50.00     -11.30 -999.99  -11.30    0.00000     0.00  LINEAR    1.39706E-01  -120.34    0.00000E+00     0.00
 -160.00    50.00      -8.57 -999.99   -8.57    0.00000     0.00  LINEAR    1.91438E-01  -123.92    0.00000E+00     0.00
 -155.00    50.00      -6.89 -999.99   -6.89    0.00000     0.00  LINEAR    2.32136E-01  -127.04    0.00000E+00     0.00
 -150.00    50.00      -5.83 -999.99   -5.83    0.00000     0.00  LINEAR    2.62328E-01  -127.31    0.00000E+00     0.00
 -145.00    50.00      -4.82 -999.99   -4.82    0.00000     0.00  LINEAR    2.94764E-01  -124.46    0.00000E+00     0.00
 -140.00    50.00      -3.51 -999.99   -3.51    0.00000     0.00  LINEAR    3.42669E-01  -121.01    0.00000E+00     0.00
 -135.00    50.00      -2.05 -999.99   -2.05    0.00000     0.00  LINEAR    4.05505E-01  -119.53    0.00000E+00     0.00
 -130.00    50.00      -0.74 -999.99   -0.74    0.00000     0.00  LINEAR    4.71496E-01  -120.33    0.00000E+00     0.00
 -125.00    50.00       0.26 -999.99    0.26    0.00000     0.00  LINEAR    5.29088E-01  -122.34    0.00000E+00     0.00
 -120.00    50.00       0.95 -999.99    0.95    0.00000     0.00  LINEAR    5.72725E-01  -124.54    0.00000E+00     0.00
 -115.00    50.00       1.39 -999.99    1.39    0.00000     0.00  LINEAR    6.02578E-01  -126.30    0.00000E+00     0.00
 -110.00    50.00       1.67 -999.99    1.67    0.00000     0.00  LINEAR    6.21894E-01  -127.40    0.00000E+00     0.00
 -105.00    50.00       1.84 -999.99    1.84    0.00000     0.00  LINEAR    6.34315E-01  -127.91    0.00000E+00     0.00
 -100.00    50.00       1.95 -999.99    1.95    0.00000     0.00  LINEAR    6.42330E-01  -128.04    0.00000E+00     0.00
  -95.00    50.00       2.01 -999.99    2.01    0.00000     0.00  LINEAR    6.47017E-01  -128.02    0.00000E+00     0.00
  -90.00    50.00       2.03 -999.99    2.03    0.00000     0.00  LINEAR    6.48585E-01  -127.99    0.00000E+00     0.00
  -85.00    50.00       2.01 -999.99    2.01    0.00000     0.00  LINEAR    6.47017E-01  -128.02    0.00000E+00     0.00
  -80.00    50.00       1.95 -999.99    1.95    0.00000     0.00  LINEAR    6.42330E-01  -128.04    0.00000E+00     0.00
  -75.00    50.00       1.84 -999.99    1.84    0.00000     0.00  LINEAR    6.34315E-01  -127.91    0.00000E+00     0.00
  -70.00    50.00       1.67 -999.99    1.67    0.00000     0.00  LINEAR    6.21894E-01  -127.40    0.00000E+00     0.00
  -65.00    50.00       1.39 -999.99    1.39    0.00000     0.00  LINEAR    6.02578E-01  -126.30    0.00000E+00     0.00
  -60.00    50.00       0.95 -999.99    0.95    0.00000     0.00  LINEAR    5.72725E-01  -124.54    0.00000E+00     0.00
  -55.00    50.00       0.26 -999.99    0.26    0.00000     0.00  LINEAR    5.29088E-01  -122.34    0.00000E+00     0.00
  -50.00    50.00      -0.74 -999.99   -0.74    0.00000     0.00  LINEAR    4.71496E-01  -120.33    0.00000E+00     0.00
  -45.00    50.00      -2.05 -999.99   -2.05    0.00000     0.00  LINEAR    4.05505E-01  -119.53    0.00000E+00     0.00
  -40.00    50.00      -3.51 -999.99   -3.51    0.00000     0.00  LINEAR    3.42669E-01  -121.01    0.00000E+00     0.00
  -35.00    50.00      -4.82 -999.99   -4.82    0.00000     0.00  LINEAR    2.94764E-01  -124.46    0.00000E+00     0.00
  -30.00    50.00      -5.83 -999.99   -5.83    0.00000     0.00  LINEAR    2.62328E-01  -127.31    0.00000E+00     0.00
  -25.00    50.00      -6.89 -999.99   -6.89    0.00000     0.00  LINEAR    2.32136E-01  -127.04    0.00000E+00     0.00
  -20.00    50.00      -8.57 -999.99   -8.57    0.00000     0.00  LINEAR    1.91438E-01  -123.92    0.00000E+00     0.00
  -15.00    50.00     -11.30 -999.99  -11.30    0.00000     0.00  LINEAR    1.39706E-01  -120.34    0.00000E+00     0.00
  -10.00    50.00     -15.45 -999.99  -15.45    0.00000     0.00  LINEAR    8.66450E-02  -119.36    0.00000E+00     0.00
   -5.00    50.00     -21.94 -999.99  -21.94    0.00000     0.00  LINEAR    4.10353E-02  -122.53    0.00000E+00     0.00
    0.00    50.00    -999.99 -999.99 -999.99    0.00000     0.00            0.00000E+00     0.00    0.00000E+00     0.00
 -180.00    55.00    -999.99 -999.99 -999.99    0.00000     0.00            4.93072E-12    53.33    0.00000E+00     0.00
 -175.00    55.00     -21.95 -999.99  -21.95    0.00000     0.00  LINEAR    4.09857E-02  -123.03    0.00000E+00     0.00
 -170.00    55.00     -15.59 -999.99  -15.59    0.00000     0.00  LINEAR    8.53006E-02  -119.72    0.00000E+00     0.00
 -165.00    55.00     -11.47 -999.99  -11.47    0.00000     0.00  LINEAR    1.36999E-01  -119.60    0.00000E+00     0.00
 -160.00    55.00      -8.59 -999.99   -8.59    0.00000     0.00  LINEAR    1.90946E-01  -122.21    0.00000E+00     0.00
 -155.00    55.00      -6.66 -999.99   -6.66    0.00000     0.00  LINEAR    2.38370E-01  -125.52    0.00000E+00     0.00
 -150.00    55.00      -5.43 -999.99   -5.43    0.00000     0.00  LINEAR    2.74835E-01  -127.52    0.00000E+00     0.00
 -145.00    55.00      -4.54 -999.99   -4.54    0.00000     0.00  LINEAR    3.04485E-01  -127.07    0.00000E+00     0.00
 -140.00    55.00      -3.63 -999.99   -3.63    0.00000     0.00  LINEAR    3.37840E-01  -124.52    0.00000E+00     0.00
 -135.00    55.00      -2.54 -999.99   -2.54    0.00000     0.00  LINEAR    3.83320E-01  -121.59    0.00000E+00     0.00
 -130.00    55.00      -1.33 -999.99   -1.33    0.00000     0.00  LINEAR    4.40356E-01  -119.87    0.00000E+00     0.00
 -125.00    55.00      -0.20 -999.99   -0.20    0.00000     0.00  LINEAR    5.01478E-01  -119.70    0.00000E+00     0.00
 -120.00    55.00       0.73 -999.99    0.73    0.00000     0.00  LINEAR    5.58564E-01  -120.61    0.00000E+00     0.00
 -115.00    55.00       1.45 -999.99    1.45    0.00000     0.00  LINEAR    6.06463E-01  -121.97    0.00000E+00     0.00
 -110.00    55.00       1.96 -999.99    1.96    0.00000     0.00  LINEAR    6.43390E-01  -123.33    0.00000E+00     0.00
 -105.00    55.00       2.31 -999.99    2.31    0.00000     0.00  LINEAR    6.69826E-01  -124.44    0.00000E+00     0.00
 -100.00    55.00       2.53 -999.99    2.53    0.00000     0.00  LINEAR    6.87213E-01  -125.23    0.00000E+00     0.00
  -95.00    55.00       2.66 -999.99    2.66    0.00000     0.00  LINEAR    6.96995E-01  -125.68    0.00000E+00     0.00
  -90.00    55.00       2.70 -999.99    2.70    0.00000     0.00  LINEAR    7.00145E-01  -125.83    0.00000E+00     0.00
  -85.00    55.00       2.66 -999.99    2.66    0.00000     0.00  LINEAR    6.96995E-01  -125.68    0.00000E+00     0.00
  -80.00    55.00       2.53 -999.99    2.53    0.00000     0.00  LINEAR    6.87213E-01  -125.23    0.00000E+00     0.00
  -75.00    55.00       2.31 -999.99    2.31    0.00000     0.00  LINEAR    6.69826E-01  -124.44    0.00000E+00     0.00
  -70.00    55.00       1.96 -999.99    1.96    0.00000     0.00  LINEAR    6.43390E-01  -123.33    0.00000E+00     0.00
  -65.00    55.00       1.45 -999.99    1.45    0.00000     0.00  LINEAR    6.06463E-01  -121.97    0.00000E+00     0.00
  -60.00    55.00       0.73 -999.99    0.73    0.00000     0.00  LINEAR    5.58564E-01  -120.61    0.00000E+00     0.00
  -55.00    55.00      -0.20 -999.99   -0.20    0.00000     0.00  LINEAR    5.01478E-01  -119.70    0.00000E+00     0.00
  -50.00    55.00      -1.33 -999.99   -1.33    0.00000     0.00  LINEAR    4.40356E-01  -119.87    0.00000E+00     0.00
  -45.00    55.00      -2.54 -999.99   -2.54    0.00000     0.00  LINEAR    3.83320E-01  -121.59    0.00000E+00     0.00
  -40.00    55.00      -3.63 -999.99   -3.63    0.00000     0.00  LINEAR    3.37840E-01  -124.52    0.00000E+00     0.00
  -35.00    55.00      -4.54 -999.99   -4.54    0.00000     0.00  LINEAR    3.04485E-01  -127.07    0.00000E+00     0.00
  -30.00    55.00      -5.43 -999.99   -5.43    0.00000     0.00  LINEAR    2.74835E-01  -127.52    0.00000E+00     0.00
  -25.00    55.00      -6.66 -999.99   -6.66    0.00000     0.00  LINEAR    2.38370E-01  -125.52    0.00000E+00     0.00
  -20.00    55.00      -8.59 -999.99   -8.59    0.00000     0.00  LINEAR    1.90946E-01  -122.21    0.00000E+00     0.00
  -15.00    55.00     -11.47 -999.99  -11.47    0.00000     0.00  LINEAR    1.36999E-01  -119.60    0.00000E+00     0.00
  -10.00    55.00     -15.59 -999.99  -15.59    0.00000     0.00  LINEAR    8.53006E-02  -119.72    0.00000E+00     0.00
   -5.00    55.00     -21.95 -999.99  -21.95    0.00000     0.00  LINEAR    4.09857E-02  -123.03    0.00000E+00     0.00
    0.00    55.00    -999.99 -999.99 -999.99    0.00000     0.00            0.00000E+00     0.00    0.00000E+00     0.00
 -180.00    60.00    -999.99 -999.99 -999.99    0.00000     0.00            4.93072E-12    53.33    0.00000E+00     0.00
 -175.00    60.00     -21.96 -999.99  -21.96    0.00000     0.00  LINEAR    4.09816E-02  -123.57    0.00000E+00     0.00
 -170.00    60.00     -15.72 -999.99  -15.72    0.00000     0.00  LINEAR    8.40526E-02  -120.33    0.00000E+00     0.00
 -165.00    60.00     -11.69 -999.99  -11.69    0.00000     0.00  LINEAR    1.33654E-01  -119.24    0.00000E+00     0.00
 -160.00    60.00      -8.73 -999.99   -8.73    0.00000     0.00  LINEAR    1.87937E-01  -120.62    0.00000E+00     0.00
 -155.00    60.00      -6.58 -999.99   -6.58    0.00000     0.00  LINEAR    2.40652E-01  -123.34    0.00000E+00     0.00
 -150.00    60.00      -5.08 -999.99   -5.08    0.00000     0.00  LINEAR    2.85946E-01  -126.02    0.00000E+00     0.00
 -145.00    60.00      -4.05 -999.99   -4.05    0.00000     0.00  LINEAR    3.22040E-01  -127.57    0.00000E+00     0.00
 -140.00    60.00      -3.27 -999.99   -3.27    0.00000     0.00  LINEAR    3.52323E-01  -127.41    0.00000E+00     0.00
 -135.00    60.00      -2.53 -999.99   -2.53    0.00000     0.00  LINEAR    3.83388E-01  -125.74    0.00000E+00     0.00
 -130.00    60.00      -1.73 -999.99   -1.73    0.00000     0.00  LINEAR    4.20832E-01  -123.43    0.00000E+00     0.00
 -125.00    60.00      -0.84 -999.99   -0.84    0.00000     0.00  LINEAR    4.65827E-01  -121.41    0.00000E+00     0.00
 -120.00    60.00       0.03 -999.99    0.03    0.00000     0.00  LINEAR    5.15183E-01  -120.18    0.00000E+00     0.00
 -115.00    60.00       0.82 -999.99    0.82    0.00000     0.00  LINEAR    5.63900E-01  -119.74    0.00000E+00     0.00
 -110.00    60.00       1.46 -999.99    1.46    0.00000     0.00  LINEAR    6.07504E-01  -119.82    0.00000E+00     0.00
 -105.00    60.00       1.96 -999.99    1.96    0.00000     0.00  LINEAR    6.43012E-01  -120.16    0.00000E+00     0.00
 -100.00    60.00       2.30 -999.99    2.30    0.00000     0.00  LINEAR    6.68868E-01  -120.53    0.00000E+00     0.00
  -95.00    60.00       2.50 -999.99    2.50    0.00000     0.00  LINEAR    6.84469E-01  -120.81    0.00000E+00     0.00
  -90.00    60.00       2.57 -999.99    2.57    0.00000     0.00  LINEAR    6.89673E-01  -120.90    0.00000E+00     0.00
  -85.00    60.00       2.50 -999.99    2.50    0.00000     0.00  LINEAR    6.84469E-01  -120.81    0.00000E+00     0.00
  -80.00    60.00       2.30 -999.99    2.30    0.00000     0.00  LINEAR    6.68868E-01  -120.53    0.00000E+00     0.00
  -75.00    60.00       1.96 -999.99    1.96    0.00000     0.00  LINEAR    6.43012E-01  -120.16    0.00000E+00     0.00
  -70.00    60.00       1.46 -999.99    1.46    0.00000     0.00  LINEAR    6.07504E-01  -119.82    0.00000E+00     0.00
  -65.00    60.00       0.82 -999.99    0.82    0.00000     0.00  LINEAR    5.63900E-01  -119.74    0.00000E+00     0.00
  -60.00    60.00       0.03 -999.99    0.03    0.00000     0.00  LINEAR    5.15183E-01  -120.18    0.00000E+00     0.00
  -55.00    60.00      -0.84 -999.99   -0.84    0.00000     0.00  LINEAR    4.65827E-01  -121.41    0.00000E+00     0.00
  -50.00    60.00      -1.73 -999.99   -1.73    0.00000     0.00  LINEAR    4.20832E-01  -123.43    0.00000E+00     0.00
  -45.00    60.00      -2.53 -999.99   -2.53    0.00000     0.00  LINEAR    3.83388E-01  -125.74    0.00000E+00     0.00
  -40.00    60.00      -3.27 -999.99   -3.27    0.00000     0.00  LINEAR    3.52323E-01  -127.41    0.00000E+00     0.00
  -35.00    60.00      -4.05 -999.99   -4.05    0.00000     0.00  LINEAR    3.22040E-01  -127.57    0.00000E+00     0.00
  -30.00    60.00      -5.08 -999.99   -5.08    0.00000     0.00  LINEAR    2.85946E-01  -126.02    0.00000E+00     0.00
  -25.00    60.00      -6.58 -999.99   -6.58    0.00000     0.00  LINEAR    2.40652E-01  -123.34    0.00000E+00     0.00
  -20.00    60.00      -8.73 -999.99   -8.73    0.00000     0.00  LINEAR    1.87937E-01  -120.62    0.00000E+00     0.00
  -15.00    60.00     -11.69 -999.99  -11.69    0.00000     0.00  LINEAR    1.33654E-01  -119.24    0.00000E+00     0.00
  -10.00    60.00     -15.72 -999.99  -15.72    0.00000     0.00  LINEAR    8.40526E-02  -120.33    0.00000E+00     0.00
   -5.00    60.00     -21.96 -999.99  -21.96    0.00000     0.00  LINEAR    4.09816E-02  -123.57    0.00000E+00     0.00
    0.00    60.00    -999.99 -999.99 -999.99    0.00000     0.00            0.00000E+00     0.00    0.00000E+00     0.00
 -180.00    65.00    -999.99 -999.99 -999.99    0.00000     0.00            4.93072E-12    53.33    0.00000E+00     0.00
 -175.00    65.00     -21.94 -999.99  -21.94    0.00000     0.00  LINEAR    4.10316E-02  -124.13    0.00000E+00     0.00
 -170.00    65.00     -15.82 -999.99  -15.82    0.00000     0.00  LINEAR    8.30292E-02  -121.19    0.00000E+00     0.00
 -165.00    65.00     -11.92 -999.99  -11.92    0.00000     0.00  LINEAR    1.30056E-01  -119.43    0.00000E+00     0.00
 -160.00    65.00      -8.98 -999.99   -8.98    0.00000     0.00  LINEAR    1.82630E-01  -119.52    0.00000E+00     0.00
 -155.00    65.00      -6.69 -999.99   -6.69    0.00000     0.00  LINEAR    2.37575E-01  -121.10    0.00000E+00     0.00
 -150.00    65.00      -4.95 -999.99   -4.95    0.00000     0.00  LINEAR    2.90239E-01  -123.38    0.00000E+00     0.00
[...]
  -70.00   340.00       1.97 -999.99    1.97    0.00000     0.00  LINEAR    6.43704E-01  -124.12    0.00000E+00     0.00
  -65.00   340.00       1.44 -999.99    1.44    0.00000     0.00  LINEAR    6.05999E-01  -121.89    0.00000E+00     0.00
  -60.00   340.00       0.58 -999.99    0.58    0.00000     0.00  LINEAR    5.48625E-01  -119.99    0.00000E+00     0.00
  -55.00   340.00      -0.59 -999.99   -0.59    0.00000     0.00  LINEAR    4.79619E-01  -120.00    0.00000E+00     0.00
  -50.00   340.00      -1.72 -999.99   -1.72    0.00000     0.00  LINEAR    4.21071E-01  -123.12    0.00000E+00     0.00
  -45.00   340.00      -2.35 -999.99   -2.35    0.00000     0.00  LINEAR    3.91758E-01  -127.07    0.00000E+00     0.00
  -40.00   340.00      -2.70 -999.99   -2.70    0.00000     0.00  LINEAR    3.76322E-01  -127.15    0.00000E+00     0.00
  -35.00   340.00      -3.58 -999.99   -3.58    0.00000     0.00  LINEAR    3.39875E-01  -123.03    0.00000E+00     0.00
  -30.00   340.00      -5.45 -999.99   -5.45    0.00000     0.00  LINEAR    2.73956E-01  -119.44    0.00000E+00     0.00
  -25.00   340.00      -7.80 -999.99   -7.80    0.00000     0.00  LINEAR    2.09153E-01  -122.01    0.00000E+00     0.00
  -20.00   340.00      -9.44 -999.99   -9.44    0.00000     0.00  LINEAR    1.73080E-01  -127.22    0.00000E+00     0.00
  -15.00   340.00     -11.19 -999.99  -11.19    0.00000     0.00  LINEAR    1.41548E-01  -125.50    0.00000E+00     0.00
  -10.00   340.00     -14.88 -999.99  -14.88    0.00000     0.00  LINEAR    9.25062E-02  -120.16    0.00000E+00     0.00
   -5.00   340.00     -21.80 -999.99  -21.80    0.00000     0.00  LINEAR    4.17205E-02  -120.61    0.00000E+00     0.00
    0.00   340.00    -999.99 -999.99 -999.99    0.00000     0.00            0.00000E+00     0.00    0.00000E+00     0.00
 -180.00   345.00    -999.99 -999.99 -999.99    0.00000     0.00            4.93072E-12    53.33    0.00000E+00     0.00
 -175.00   345.00     -21.78 -999.99  -21.78    0.00000     0.00  LINEAR    4.18138E-02  -120.47    0.00000E+00     0.00
 -170.00   345.00     -14.85 -999.99  -14.85    0.00000     0.00  LINEAR    9.29163E-02  -120.38    0.00000E+00     0.00
 -165.00   345.00     -11.23 -999.99  -11.23    0.00000     0.00  LINEAR    1.40855E-01  -125.92    0.00000E+00     0.00
 -160.00   345.00      -9.54 -999.99   -9.54    0.00000     0.00  LINEAR    1.71159E-01  -126.88    0.00000E+00     0.00
 -155.00   345.00      -7.73 -999.99   -7.73    0.00000     0.00  LINEAR    2.10687E-01  -121.18    0.00000E+00     0.00
 -150.00   345.00      -5.31 -999.99   -5.31    0.00000     0.00  LINEAR    2.78533E-01  -119.76    0.00000E+00     0.00
 -145.00   345.00      -3.58 -999.99   -3.58    0.00000     0.00  LINEAR    3.39833E-01  -124.13    0.00000E+00     0.00
 -140.00   345.00      -2.88 -999.99   -2.88    0.00000     0.00  LINEAR    3.68626E-01  -127.63    0.00000E+00     0.00
 -135.00   345.00      -2.51 -999.99   -2.51    0.00000     0.00  LINEAR    3.84479E-01  -126.00    0.00000E+00     0.00
 -130.00   345.00      -1.63 -999.99   -1.63    0.00000     0.00  LINEAR    4.25243E-01  -121.55    0.00000E+00     0.00
 -125.00   345.00      -0.34 -999.99   -0.34    0.00000     0.00  LINEAR    4.93630E-01  -119.62    0.00000E+00     0.00
 -120.00   345.00       0.79 -999.99    0.79    0.00000     0.00  LINEAR    5.62111E-01  -120.95    0.00000E+00     0.00
 -115.00   345.00       1.51 -999.99    1.51    0.00000     0.00  LINEAR    6.11081E-01  -123.54    0.00000E+00     0.00
 -110.00   345.00       1.89 -999.99    1.89    0.00000     0.00  LINEAR    6.38231E-01  -125.83    0.00000E+00     0.00
 -105.00   345.00       2.06 -999.99    2.06    0.00000     0.00  LINEAR    6.50397E-01  -127.25    0.00000E+00     0.00
 -100.00   345.00       2.12 -999.99    2.12    0.00000     0.00  LINEAR    6.55135E-01  -127.87    0.00000E+00     0.00
  -95.00   345.00       2.14 -999.99    2.14    0.00000     0.00  LINEAR    6.56945E-01  -128.04    0.00000E+00     0.00
  -90.00   345.00       2.15 -999.99    2.15    0.00000     0.00  LINEAR    6.57452E-01  -128.06    0.00000E+00     0.00
  -85.00   345.00       2.14 -999.99    2.14    0.00000     0.00  LINEAR    6.56945E-01  -128.04    0.00000E+00     0.00
  -80.00   345.00       2.12 -999.99    2.12    0.00000     0.00  LINEAR    6.55135E-01  -127.87    0.00000E+00     0.00
  -75.00   345.00       2.06 -999.99    2.06    0.00000     0.00  LINEAR    6.50397E-01  -127.25    0.00000E+00     0.00
  -70.00   345.00       1.89 -999.99    1.89    0.00000     0.00  LINEAR    6.38231E-01  -125.83    0.00000E+00     0.00
  -65.00   345.00       1.51 -999.99    1.51    0.00000     0.00  LINEAR    6.11081E-01  -123.54    0.00000E+00     0.00
  -60.00   345.00       0.79 -999.99    0.79    0.00000     0.00  LINEAR    5.62111E-01  -120.95    0.00000E+00     0.00
  -55.00   345.00      -0.34 -999.99   -0.34    0.00000     0.00  LINEAR    4.93631E-01  -119.62    0.00000E+00     0.00
  -50.00   345.00      -1.63 -999.99   -1.63    0.00000     0.00  LINEAR    4.25243E-01  -121.55    0.00000E+00     0.00
  -45.00   345.00      -2.51 -999.99   -2.51    0.00000     0.00  LINEAR    3.84479E-01  -126.00    0.00000E+00     0.00
  -40.00   345.00      -2.88 -999.99   -2.88    0.00000     0.00  LINEAR    3.68626E-01  -127.63    0.00000E+00     0.00
  -35.00   345.00      -3.58 -999.99   -3.58    0.00000     0.00  LINEAR    3.39833E-01  -124.13    0.00000E+00     0.00
  -30.00   345.00      -5.31 -999.99   -5.31    0.00000     0.00  LINEAR    2.78533E-01  -119.76    0.00000E+00     0.00
  -25.00   345.00      -7.73 -999.99   -7.73    0.00000     0.00  LINEAR    2.10687E-01  -121.18    0.00000E+00     0.00
  -20.00   345.00      -9.54 -999.99   -9.54    0.00000     0.00  LINEAR    1.71159E-01  -126.88    0.00000E+00     0.00
  -15.00   345.00     -11.23 -999.99  -11.23    0.00000     0.00  LINEAR    1.40855E-01  -125.92    0.00000E+00     0.00
  -10.00   345.00     -14.85 -999.99  -14.85    0.00000     0.00  LINEAR    9.29163E-02  -120.38    0.00000E+00     0.00
   -5.00   345.00     -21.78 -999.99  -21.78    0.00000     0.00  LINEAR    4.18138E-02  -120.47    0.00000E+00     0.00
    0.00   345.00    -999.99 -999.99 -999.99    0.00000     0.00            0.00000E+00     0.00    0.00000E+00     0.00
 -180.00   350.00    -999.99 -999.99 -999.99    0.00000     0.00            4.93072E-12    53.33    0.00000E+00     0.00
 -175.00   350.00     -21.77 -999.99  -21.77    0.00000     0.00  LINEAR    4.18837E-02  -120.37    0.00000E+00     0.00
 -170.00   350.00     -14.82 -999.99  -14.82    0.00000     0.00  LINEAR    9.31922E-02  -120.56    0.00000E+00     0.00
 -165.00   350.00     -11.27 -999.99  -11.27    0.00000     0.00  LINEAR    1.40282E-01  -126.19    0.00000E+00     0.00
 -160.00   350.00      -9.60 -999.99   -9.60    0.00000     0.00  LINEAR    1.69905E-01  -126.56    0.00000E+00     0.00
 -155.00   350.00      -7.67 -999.99   -7.67    0.00000     0.00  LINEAR    2.12186E-01  -120.66    0.00000E+00     0.00
 -150.00   350.00      -5.22 -999.99   -5.22    0.00000     0.00  LINEAR    2.81533E-01  -120.12    0.00000E+00     0.00
 -145.00   350.00      -3.61 -999.99   -3.61    0.00000     0.00  LINEAR    3.38749E-01  -124.89    0.00000E+00     0.00
 -140.00   350.00      -3.02 -999.99   -3.02    0.00000     0.00  LINEAR    3.62673E-01  -127.74    0.00000E+00     0.00
 -135.00   350.00      -2.59 -999.99   -2.59    0.00000     0.00  LINEAR    3.81132E-01  -125.01    0.00000E+00     0.00
 -130.00   350.00      -1.52 -999.99   -1.52    0.00000     0.00  LINEAR    4.30925E-01  -120.64    0.00000E+00     0.00
 -125.00   350.00      -0.16 -999.99   -0.16    0.00000     0.00  LINEAR    5.03936E-01  -119.77    0.00000E+00     0.00
 -120.00   350.00       0.89 -999.99    0.89    0.00000     0.00  LINEAR    5.68944E-01  -121.93    0.00000E+00     0.00
 -115.00   350.00       1.50 -999.99    1.50    0.00000     0.00  LINEAR    6.10049E-01  -124.77    0.00000E+00     0.00
 -110.00   350.00       1.77 -999.99    1.77    0.00000     0.00  LINEAR    6.29469E-01  -126.87    0.00000E+00     0.00
 -105.00   350.00       1.87 -999.99    1.87    0.00000     0.00  LINEAR    6.36564E-01  -127.85    0.00000E+00     0.00
 -100.00   350.00       1.90 -999.99    1.90    0.00000     0.00  LINEAR    6.39090E-01  -128.03    0.00000E+00     0.00
  -95.00   350.00       1.92 -999.99    1.92    0.00000     0.00  LINEAR    6.40401E-01  -127.90    0.00000E+00     0.00
  -90.00   350.00       1.93 -999.99    1.93    0.00000     0.00  LINEAR    6.40904E-01  -127.81    0.00000E+00     0.00
  -85.00   350.00       1.92 -999.99    1.92    0.00000     0.00  LINEAR    6.40401E-01  -127.90    0.00000E+00     0.00
  -80.00   350.00       1.90 -999.99    1.90    0.00000     0.00  LINEAR    6.39090E-01  -128.03    0.00000E+00     0.00
  -75.00   350.00       1.87 -999.99    1.87    0.00000     0.00  LINEAR    6.36564E-01  -127.85    0.00000E+00     0.00
  -70.00   350.00       1.77 -999.99    1.77    0.00000     0.00  LINEAR    6.29469E-01  -126.87    0.00000E+00     0.00
  -65.00   350.00       1.50 -999.99    1.50    0.00000     0.00  LINEAR    6.10049E-01  -124.77    0.00000E+00     0.00
  -60.00   350.00       0.89 -999.99    0.89    0.00000     0.00  LINEAR    5.68944E-01  -121.93    0.00000E+00     0.00
  -55.00   350.00      -0.16 -999.99   -0.16    0.00000     0.00  LINEAR    5.03936E-01  -119.77    0.00000E+00     0.00
  -50.00   350.00      -1.52 -999.99   -1.52    0.00000     0.00  LINEAR    4.30925E-01  -120.64    0.00000E+00     0.00
  -45.00   350.00      -2.59 -999.99   -2.59    0.00000     0.00  LINEAR    3.81132E-01  -125.01    0.00000E+00     0.00
  -40.00   350.00      -3.02 -999.99   -3.02    0.00000     0.00  LINEAR    3.62673E-01  -127.74    0.00000E+00     0.00
  -35.00   350.00      -3.61 -999.99   -3.61    0.00000     0.00  LINEAR    3.38749E-01  -124.89    0.00000E+00     0.00
  -30.00   350.00      -5.22 -999.99   -5.22    0.00000     0.00  LINEAR    2.81533E-01  -120.12    0.00000E+00     0.00
  -25.00   350.00      -7.67 -999.99   -7.67    0.00000     0.00  LINEAR    2.12186E-01  -120.66    0.00000E+00     0.00
  -20.00   350.00      -9.60 -999.99   -9.60    0.00000     0.00  LINEAR    1.69905E-01  -126.56    0.00000E+00     0.00
  -15.00   350.00     -11.27 -999.99  -11.27    0.00000     0.00  LINEAR    1.40282E-01  -126.19    0.00000E+00     0.00
  -10.00   350.00     -14.82 -999.99  -14.82    0.00000     0.00  LINEAR    9.31922E-02  -120.56    0.00000E+00     0.00
   -5.00   350.00     -21.77 -999.99  -21.77    0.00000     0.00  LINEAR    4.18837E-02  -120.37    0.00000E+00     0.00
    0.00   350.00    -999.99 -999.99 -999.99    0.00000     0.00            0.00000E+00     0.00    0.00000E+00     0.00
 -180.00   355.00    -999.99 -999.99 -999.99    0.00000     0.00            4.93072E-12    53.33    0.00000E+00     0.00
 -175.00   355.00     -21.76 -999.99  -21.76    0.00000     0.00  LINEAR    4.19270E-02  -120.31    0.00000E+00     0.00
 -170.00   355.00     -14.81 -999.99  -14.81    0.00000     0.00  LINEAR    9.33504E-02  -120.67    0.00000E+00     0.00
 -165.00   355.00     -11.29 -999.99  -11.29    0.00000     0.00  LINEAR    1.39908E-01  -126.35    0.00000E+00     0.00
 -160.00   355.00      -9.64 -999.99   -9.64    0.00000     0.00  LINEAR    1.69211E-01  -126.34    0.00000E+00     0.00
 -155.00   355.00      -7.63 -999.99   -7.63    0.00000     0.00  LINEAR    2.13231E-01  -120.38    0.00000E+00     0.00
 -150.00   355.00      -5.17 -999.99   -5.17    0.00000     0.00  LINEAR    2.83182E-01  -120.39    0.00000E+00     0.00
 -145.00   355.00      -3.64 -999.99   -3.64    0.00000     0.00  LINEAR    3.37683E-01  -125.34    0.00000E+00     0.00
 -140.00   355.00      -3.10 -999.99   -3.10    0.00000     0.00  LINEAR    3.59060E-01  -127.71    0.00000E+00     0.00
 -135.00   355.00      -2.61 -999.99   -2.61    0.00000     0.00  LINEAR    3.80015E-01  -124.36    0.00000E+00     0.00
 -130.00   355.00      -1.43 -999.99   -1.43    0.00000     0.00  LINEAR    4.35212E-01  -120.21    0.00000E+00     0.00
 -125.00   355.00      -0.06 -999.99   -0.06    0.00000     0.00  LINEAR    5.09824E-01  -120.02    0.00000E+00     0.00
 -120.00   355.00       0.93 -999.99    0.93    0.00000     0.00  LINEAR    5.71614E-01  -122.60    0.00000E+00     0.00
 -115.00   355.00       1.46 -999.99    1.46    0.00000     0.00  LINEAR    6.07539E-01  -125.49    0.00000E+00     0.00
 -110.00   355.00       1.68 -999.99    1.68    0.00000     0.00  LINEAR    6.22598E-01  -127.36    0.00000E+00     0.00
 -105.00   355.00       1.74 -999.99    1.74    0.00000     0.00  LINEAR    6.27408E-01  -128.01    0.00000E+00     0.00
 -100.00   355.00       1.77 -999.99    1.77    0.00000     0.00  LINEAR    6.29452E-01  -127.89    0.00000E+00     0.00
  -95.00   355.00       1.79 -999.99    1.79    0.00000     0.00  LINEAR    6.31075E-01  -127.56    0.00000E+00     0.00
  -90.00   355.00       1.80 -999.99    1.80    0.00000     0.00  LINEAR    6.31792E-01  -127.41    0.00000E+00     0.00
  -85.00   355.00       1.79 -999.99    1.79    0.00000     0.00  LINEAR    6.31075E-01  -127.56    0.00000E+00     0.00
  -80.00   355.00       1.77 -999.99    1.77    0.00000     0.00  LINEAR    6.29452E-01  -127.89    0.00000E+00     0.00
  -75.00   355.00       1.74 -999.99    1.74    0.00000     0.00  LINEAR    6.27408E-01  -128.01    0.00000E+00     0.00
  -70.00   355.00       1.68 -999.99    1.68    0.00000     0.00  LINEAR    6.22598E-01  -127.36    0.00000E+00     0.00
  -65.00   355.00       1.46 -999.99    1.46    0.00000     0.00  LINEAR    6.07539E-01  -125.49    0.00000E+00     0.00
  -60.00   355.00       0.93 -999.99    0.93    0.00000     0.00  LINEAR    5.71614E-01  -122.60    0.00000E+00     0.00
  -55.00   355.00      -0.06 -999.99   -0.06    0.00000     0.00  LINEAR    5.09824E-01  -120.02    0.00000E+00     0.00
  -50.00   355.00      -1.43 -999.99   -1.43    0.00000     0.00  LINEAR    4.35212E-01  -120.21    0.00000E+00     0.00
  -45.00   355.00      -2.61 -999.99   -2.61    0.00000     0.00  LINEAR    3.80015E-01  -124.36    0.00000E+00     0.00
  -40.00   355.00      -3.10 -999.99   -3.10    0.00000     0.00  LINEAR    3.59060E-01  -127.71    0.00000E+00     0.00
  -35.00   355.00      -3.64 -999.99   -3.64    0.00000     0.00  LINEAR    3.37683E-01  -125.34    0.00000E+00     0.00
  -30.00   355.00      -5.17 -999.99   -5.17    0.00000     0.00  LINEAR    2.83182E-01  -120.39    0.00000E+00     0.00
  -25.00   355.00      -7.63 -999.99   -7.63    0.00000     0.00  LINEAR    2.13231E-01  -120.38    0.00000E+00     0.00
  -20.00   355.00      -9.64 -999.99   -9.64    0.00000     0.00  LINEAR    1.69211E-01  -126.34    0.00000E+00     0.00
  -15.00   355.00     -11.29 -999.99  -11.29    0.00000     0.00  LINEAR    1.39908E-01  -126.35    0.00000E+00     0.00
  -10.00   355.00     -14.81 -999.99  -14.81    0.00000     0.00  LINEAR    9.33504E-02  -120.67    0.00000E+00     0.00
   -5.00   355.00     -21.76 -999.99  -21.76    0.00000     0.00  LINEAR    4.19270E-02  -120.31    0.00000E+00     0.00
    0.00   355.00    -999.99 -999.99 -999.99    0.00000     0.00            0.00000E+00     0.00    0.00000E+00     0.00
 -180.00   360.00    -999.99 -999.99 -999.99    0.00000     0.00            4.93072E-12    53.33    0.00000E+00     0.00
 -175.00   360.00     -21.75 -999.99  -21.75    0.00000     0.00  LINEAR    4.19417E-02  -120.30    0.00000E+00     0.00
 -170.00   360.00     -14.80 -999.99  -14.80    0.00000     0.00  LINEAR    9.34018E-02  -120.71    0.00000E+00     0.00
 -165.00   360.00     -11.30 -999.99  -11.30    0.00000     0.00  LINEAR    1.39779E-01  -126.40    0.00000E+00     0.00
 -160.00   360.00      -9.65 -999.99   -9.65    0.00000     0.00  LINEAR    1.68990E-01  -126.26    0.00000E+00     0.00
 -155.00   360.00      -7.62 -999.99   -7.62    0.00000     0.00  LINEAR    2.13602E-01  -120.29    0.00000E+00     0.00
 -150.00   360.00      -5.15 -999.99   -5.15    0.00000     0.00  LINEAR    2.83701E-01  -120.48    0.00000E+00     0.00
 -145.00   360.00      -3.65 -999.99   -3.65    0.00000     0.00  LINEAR    3.37260E-01  -125.48    0.00000E+00     0.00
 -140.00   360.00      -3.13 -999.99   -3.13    0.00000     0.00  LINEAR    3.57864E-01  -127.68    0.00000E+00     0.00
 -135.00   360.00      -2.62 -999.99   -2.62    0.00000     0.00  LINEAR    3.79802E-01  -124.13    0.00000E+00     0.00
 -130.00   360.00      -1.40 -999.99   -1.40    0.00000     0.00  LINEAR    4.36760E-01  -120.09    0.00000E+00     0.00
 -125.00   360.00      -0.03 -999.99   -0.03    0.00000     0.00  LINEAR    5.11698E-01  -120.12    0.00000E+00     0.00
 -120.00   360.00       0.94 -999.99    0.94    0.00000     0.00  LINEAR    5.72244E-01  -122.83    0.00000E+00     0.00
 -115.00   360.00       1.45 -999.99    1.45    0.00000     0.00  LINEAR    6.06398E-01  -125.71    0.00000E+00     0.00
 -110.00   360.00       1.64 -999.99    1.64    0.00000     0.00  LINEAR    6.20087E-01  -127.49    0.00000E+00     0.00
 -105.00   360.00       1.70 -999.99    1.70    0.00000     0.00  LINEAR    6.24294E-01  -128.02    0.00000E+00     0.00
 -100.00   360.00       1.73 -999.99    1.73    0.00000     0.00  LINEAR    6.26337E-01  -127.80    0.00000E+00     0.00
  -95.00   360.00       1.75 -999.99    1.75    0.00000     0.00  LINEAR    6.28172E-01  -127.41    0.00000E+00     0.00
  -90.00   360.00       1.77 -999.99    1.77    0.00000     0.00  LINEAR    6.28996E-01  -127.23    0.00000E+00     0.00
  -85.00   360.00       1.75 -999.99    1.75    0.00000     0.00  LINEAR    6.28172E-01  -127.41    0.00000E+00     0.00
  -80.00   360.00       1.73 -999.99    1.73    0.00000     0.00  LINEAR    6.26337E-01  -127.80    0.00000E+00     0.00
  -75.00   360.00       1.70 -999.99    1.70    0.00000     0.00  LINEAR    6.24294E-01  -128.02    0.00000E+00     0.00
  -70.00   360.00       1.64 -999.99    1.64    0.00000     0.00  LINEAR    6.20087E-01  -127.49    0.00000E+00     0.00
  -65.00   360.00       1.45 -999.99    1.45    0.00000     0.00  LINEAR    6.06398E-01  -125.71    0.00000E+00     0.00
  -60.00   360.00       0.94 -999.99    0.94    0.00000     0.00  LINEAR    5.72244E-01  -122.83    0.00000E+00     0.00
  -55.00   360.00      -0.03 -999.99   -0.03    0.00000     0.00  LINEAR    5.11698E-01  -120.12    0.00000E+00     0.00
  -50.00   360.00      -1.40 -999.99   -1.40    0.00000     0.00  LINEAR    4.36760E-01  -120.09    0.00000E+00     0.00
  -45.00   360.00      -2.62 -999.99   -2.62    0.00000     0.00  LINEAR    3.79802E-01  -124.13    0.00000E+00     0.00
  -40.00   360.00      -3.13 -999.99   -3.13    0.00000     0.00  LINEAR    3.57864E-01  -127.68    0.00000E+00     0.00
  -35.00   360.00      -3.65 -999.99   -3.65    0.00000     0.00  LINEAR    3.37260E-01  -125.48    0.00000E+00     0.00
  -30.00   360.00      -5.15 -999.99   -5.15    0.00000     0.00  LINEAR    2.83701E-01  -120.48    0.00000E+00     0.00
  -25.00   360.00      -7.62 -999.99   -7.62    0.00000     0.00  LINEAR    2.13602E-01  -120.29    0.00000E+00     0.00
  -20.00   360.00      -9.65 -999.99   -9.65    0.00000     0.00  LINEAR    1.68990E-01  -126.26    0.00000E+00     0.00
  -15.00   360.00     -11.30 -999.99  -11.30    0.00000     0.00  LINEAR    1.39779E-01  -126.40    0.00000E+00     0.00
  -10.00   360.00     -14.80 -999.99  -14.80    0.00000     0.00  LINEAR    9.34018E-02  -120.71    0.00000E+00     0.00
   -5.00   360.00     -21.75 -999.99  -21.75    0.00000     0.00  LINEAR    4.19417E-02  -120.30    0.00000E+00     0.00
    0.00   360.00    -999.99 -999.99 -999.99    0.00000     0.00            0.00000E+00     0.00    0.00000E+00     0.00


   AVERAGE POWER GAIN= 9.99493E-01       SOLID ANGLE USED IN AVERAGING=( 4.0000)*PI STERADIANS.








 ***** DATA CARD NO.  6   EN   0    37    73  1003 -1.80000E+02  0.00000E+00  5.00000E+00  5.00000E+00  0.00000E+00  0.00000E+00

 RUN TIME =     0.078
