1



                                 *********************************************

                                    NUMERICAL ELECTROMAGNETICS CODE (NEC-2D)

                                 *********************************************




                                     - - - - COMMENTS - - - -


                                                                                                     
                                                                                                     




                                 - - - STRUCTURE SPECIFICATION - - -

                                     COORDINATES MUST BE INPUT IN
                                     METERS OR BE SCALED TO METERS
                                     BEFORE STRUCTURE INPUT IS ENDED


  WIRE                                                                               NO. OF    FIRST  LAST     TAG
  NO.        X1         Y1         Z1          X2         Y2         Z2      RADIUS   SEG.     SEG.   SEG.     NO.
     1    0.00000    0.00000   -2.50000     0.00000    0.00000    2.50000    0.01000     41        1    41       1
     2   20.00000    0.00000    7.50000    20.00000    0.00000   12.50000    0.01000     41       42    82       2

   TOTAL SEGMENTS USED=   82     NO. SEG. IN A SYMMETRIC CELL=   82     SYMMETRY FLAG=  0


         - MULTIPLE WIRE JUNCTIONS -
 JUNCTION    SEGMENTS  (- FOR END 1, + FOR END 2)
  NONE




                                 - - - - SEGMENTATION DATA - - - -

                                        COORDINATES IN METERS

                         I+ AND I- INDICATE THE SEGMENTS BEFORE AND AFTER I


  SEG.   COORDINATES OF SEG. CENTER     SEG.     ORIENTATION ANGLES    WIRE    CONNECTION DATA   TAG
  NO.       X         Y         Z       LENGTH     ALPHA     BETA      RADIUS    I-   I    I+    NO.
     1   0.00000   0.00000  -2.43902   0.12195   90.00000   0.00000   0.01000     0    1    2      1
     2   0.00000   0.00000  -2.31707   0.12195   90.00000   0.00000   0.01000     1    2    3      1
     3   0.00000   0.00000  -2.19512   0.12195   90.00000   0.00000   0.01000     2    3    4      1
     4   0.00000   0.00000  -2.07317   0.12195   90.00000   0.00000   0.01000     3    4    5      1
     5   0.00000   0.00000  -1.95122   0.12195   90.00000   0.00000   0.01000     4    5    6      1
     6   0.00000   0.00000  -1.82927   0.12195   90.00000   0.00000   0.01000     5    6    7      1
     7   0.00000   0.00000  -1.70732   0.12195   90.00000   0.00000   0.01000     6    7    8      1
     8   0.00000   0.00000  -1.58537   0.12195   90.00000   0.00000   0.01000     7    8    9      1
     9   0.00000   0.00000  -1.46341   0.12195   90.00000   0.00000   0.01000     8    9   10      1
    10   0.00000   0.00000  -1.34146   0.12195   90.00000   0.00000   0.01000     9   10   11      1
    11   0.00000   0.00000  -1.21951   0.12195   90.00000   0.00000   0.01000    10   11   12      1
    12   0.00000   0.00000  -1.09756   0.12195   90.00000   0.00000   0.01000    11   12   13      1
    13   0.00000   0.00000  -0.97561   0.12195   90.00000   0.00000   0.01000    12   13   14      1
    14   0.00000   0.00000  -0.85366   0.12195   90.00000   0.00000   0.01000    13   14   15      1
    15   0.00000   0.00000  -0.73171   0.12195   90.00000   0.00000   0.01000    14   15   16      1
    16   0.00000   0.00000  -0.60976   0.12195   90.00000   0.00000   0.01000    15   16   17      1
    17   0.00000   0.00000  -0.48780   0.12195   90.00000   0.00000   0.01000    16   17   18      1
    18   0.00000   0.00000  -0.36585   0.12195   90.00000   0.00000   0.01000    17   18   19      1
    19   0.00000   0.00000  -0.24390   0.12195   90.00000   0.00000   0.01000    18   19   20      1
    20   0.00000   0.00000  -0.12195   0.12195   90.00000   0.00000   0.01000    19   20   21      1
    21   0.00000   0.00000   0.00000   0.12195   90.00000   0.00000   0.01000    20   21   22      1
    22   0.00000   0.00000   0.12195   0.12195   90.00000   0.00000   0.01000    21   22   23      1
    23   0.00000   0.00000   0.24390   0.12195   90.00000   0.00000   0.01000    22   23   24      1
    24   0.00000   0.00000   0.36585   0.12195   90.00000   0.00000   0.01000    23   24   25      1
    25   0.00000   0.00000   0.48780   0.12195   90.00000   0.00000   0.01000    24   25   26      1
    26   0.00000   0.00000   0.60976   0.12195   90.00000   0.00000   0.01000    25   26   27      1
    27   0.00000   0.00000   0.73171   0.12195   90.00000   0.00000   0.01000    26   27   28      1
    28   0.00000   0.00000   0.85366   0.12195   90.00000   0.00000   0.01000    27   28   29      1
    29   0.00000   0.00000   0.97561   0.12195   90.00000   0.00000   0.01000    28   29   30      1
    30   0.00000   0.00000   1.09756   0.12195   90.00000   0.00000   0.01000    29   30   31      1
    31   0.00000   0.00000   1.21951   0.12195   90.00000   0.00000   0.01000    30   31   32      1
    32   0.00000   0.00000   1.34146   0.12195   90.00000   0.00000   0.01000    31   32   33      1
    33   0.00000   0.00000   1.46341   0.12195   90.00000   0.00000   0.01000    32   33   34      1
    34   0.00000   0.00000   1.58537   0.12195   90.00000   0.00000   0.01000    33   34   35      1
    35   0.00000   0.00000   1.70732   0.12195   90.00000   0.00000   0.01000    34   35   36      1
    36   0.00000   0.00000   1.82927   0.12195   90.00000   0.00000   0.01000    35   36   37      1
    37   0.00000   0.00000   1.95122   0.12195   90.00000   0.00000   0.01000    36   37   38      1
    38   0.00000   0.00000   2.07317   0.12195   90.00000   0.00000   0.01000    37   38   39      1
    39   0.00000   0.00000   2.19512   0.12195   90.00000   0.00000   0.01000    38   39   40      1
    40   0.00000   0.00000   2.31707   0.12195   90.00000   0.00000   0.01000    39   40   41      1
    41   0.00000   0.00000   2.43902   0.12195   90.00000   0.00000   0.01000    40   41    0      1
    42  20.00000   0.00000   7.56098   0.12195   90.00000   0.00000   0.01000     0   42   43      2
    43  20.00000   0.00000   7.68293   0.12195   90.00000   0.00000   0.01000    42   43   44      2
    44  20.00000   0.00000   7.80488   0.12195   90.00000   0.00000   0.01000    43   44   45      2
    45  20.00000   0.00000   7.92683   0.12195   90.00000   0.00000   0.01000    44   45   46      2
    46  20.00000   0.00000   8.04878   0.12195   90.00000   0.00000   0.01000    45   46   47      2
    47  20.00000   0.00000   8.17073   0.12195   90.00000   0.00000   0.01000    46   47   48      2
    48  20.00000   0.00000   8.29268   0.12195   90.00000   0.00000   0.01000    47   48   49      2
    49  20.00000   0.00000   8.41463   0.12195   90.00000   0.00000   0.01000    48   49   50      2
    50  20.00000   0.00000   8.53659   0.12195   90.00000   0.00000   0.01000    49   50   51      2
    51  20.00000   0.00000   8.65854   0.12195   90.00000   0.00000   0.01000    50   51   52      2
    52  20.00000   0.00000   8.78049   0.12195   90.00000   0.00000   0.01000    51   52   53      2
    53  20.00000   0.00000   8.90244   0.12195   90.00000   0.00000   0.01000    52   53   54      2
    54  20.00000   0.00000   9.02439   0.12195   90.00000   0.00000   0.01000    53   54   55      2
    55  20.00000   0.00000   9.14634   0.12195   90.00000   0.00000   0.01000    54   55   56      2
    56  20.00000   0.00000   9.26829   0.12195   90.00000   0.00000   0.01000    55   56   57      2
    57  20.00000   0.00000   9.39024   0.12195   90.00000   0.00000   0.01000    56   57   58      2
    58  20.00000   0.00000   9.51220   0.12195   90.00000   0.00000   0.01000    57   58   59      2
    59  20.00000   0.00000   9.63415   0.12195   90.00000   0.00000   0.01000    58   59   60      2
    60  20.00000   0.00000   9.75610   0.12195   90.00000   0.00000   0.01000    59   60   61      2
    61  20.00000   0.00000   9.87805   0.12195   90.00000   0.00000   0.01000    60   61   62      2
    62  20.00000   0.00000  10.00000   0.12195   90.00000   0.00000   0.01000    61   62   63      2
    63  20.00000   0.00000  10.12195   0.12195   90.00000   0.00000   0.01000    62   63   64      2
    64  20.00000   0.00000  10.24390   0.12195   90.00000   0.00000   0.01000    63   64   65      2
    65  20.00000   0.00000  10.36585   0.12195   90.00000   0.00000   0.01000    64   65   66      2
    66  20.00000   0.00000  10.48780   0.12195   90.00000   0.00000   0.01000    65   66   67      2
    67  20.00000   0.00000  10.60976   0.12195   90.00000   0.00000   0.01000    66   67   68      2
    68  20.00000   0.00000  10.73171   0.12195   90.00000   0.00000   0.01000    67   68   69      2
    69  20.00000   0.00000  10.85366   0.12195   90.00000   0.00000   0.01000    68   69   70      2
    70  20.00000   0.00000  10.97561   0.12195   90.00000   0.00000   0.01000    69   70   71      2
    71  20.00000   0.00000  11.09756   0.12195   90.00000   0.00000   0.01000    70   71   72      2
    72  20.00000   0.00000  11.21951   0.12195   90.00000   0.00000   0.01000    71   72   73      2
    73  20.00000   0.00000  11.34146   0.12195   90.00000   0.00000   0.01000    72   73   74      2
    74  20.00000   0.00000  11.46341   0.12195   90.00000   0.00000   0.01000    73   74   75      2
    75  20.00000   0.00000  11.58537   0.12195   90.00000   0.00000   0.01000    74   75   76      2
    76  20.00000   0.00000  11.70732   0.12195   90.00000   0.00000   0.01000    75   76   77      2
    77  20.00000   0.00000  11.82927   0.12195   90.00000   0.00000   0.01000    76   77   78      2
    78  20.00000   0.00000  11.95122   0.12195   90.00000   0.00000   0.01000    77   78   79      2
    79  20.00000   0.00000  12.07317   0.12195   90.00000   0.00000   0.01000    78   79   80      2
    80  20.00000   0.00000  12.19512   0.12195   90.00000   0.00000   0.01000    79   80   81      2
    81  20.00000   0.00000  12.31707   0.12195   90.00000   0.00000   0.01000    80   81   82      2
    82  20.00000   0.00000  12.43902   0.12195   90.00000   0.00000   0.01000    81   82    0      2






 ***** DATA CARD NO.  1   GN  -1     0     0     0  0.00000E+00  0.00000E+00  0.00000E+00  0.00000E+00  0.00000E+00  0.00000E+00
 ***** DATA CARD NO.  2   EK   0     0     0     0  0.00000E+00  0.00000E+00  0.00000E+00  0.00000E+00  0.00000E+00  0.00000E+00
 ***** DATA CARD NO.  3   EX   0     1    21     0  1.00000E+00  0.00000E+00  0.00000E+00  0.00000E+00  0.00000E+00  0.00000E+00
 ***** DATA CARD NO.  4   FR   0     0     0     0  3.00000E+01  0.00000E+00  0.00000E+00  0.00000E+00  0.00000E+00  0.00000E+00
 ***** DATA CARD NO.  5   RP   0    37    73  1003 -1.80000E+02  0.00000E+00  5.00000E+00  5.00000E+00  0.00000E+00  0.00000E+00




                                 - - - - - - FREQUENCY - - - - - -

                                    FREQUENCY= 3.0000E+01 MHZ
                                    WAVELENGTH= 9.9933E+00 METERS




                    APPROXIMATE INTEGRATION EMPLOYED FOR SEGMENTS MORE THAN   1.000 WAVELENGTHS APART

                    THE EXTENDED THIN WIRE KERNEL WILL BE USED



                               - - - STRUCTURE IMPEDANCE LOADING - - -

                                   THIS STRUCTURE IS NOT LOADED



                                  - - - ANTENNA ENVIRONMENT - - -

                                            FREE SPACE



                                - - - MATRIX TIMING - - -

                        FILL=    0.000 SEC.,  FACTOR=    0.000 SEC.



                                          - - - ANTENNA INPUT PARAMETERS - - -

   TAG   SEG.    VOLTAGE (VOLTS)         CURRENT (AMPS)         IMPEDANCE (OHMS)        ADMITTANCE (MHOS)      POWER
   NO.   NO.    REAL        IMAG.       REAL        IMAG.       REAL        IMAG.       REAL        IMAG.     (WATTS)
     1    21 1.00000E+00 0.00000E+00 8.76139E-03-5.07642E-03 8.54504E+01 4.95106E+01 8.76139E-03-5.07642E-03 4.38069E-03



                             - - - CURRENTS AND LOCATION - - -

                                 DISTANCES IN WAVELENGTHS


  SEG.  TAG    COORD. OF SEG. CENTER     SEG.            - - - CURRENT (AMPS) - - -
  NO.   NO.     X        Y        Z      LENGTH     REAL        IMAG.       MAG.        PHASE
     1    1   0.0000   0.0000  -0.2441  0.01220   5.6572E-04 -4.4908E-04  7.2230E-04  -38.443
     2    1   0.0000   0.0000  -0.2319  0.01220   1.3573E-03 -1.0684E-03  1.7274E-03  -38.206
     3    1   0.0000   0.0000  -0.2197  0.01220   2.0568E-03 -1.6047E-03  2.6087E-03  -37.961
     4    1   0.0000   0.0000  -0.2075  0.01220   2.7186E-03 -2.1019E-03  3.4364E-03  -37.710
     5    1   0.0000   0.0000  -0.1953  0.01220   3.3501E-03 -2.5663E-03  4.2201E-03  -37.453
     6    1   0.0000   0.0000  -0.1830  0.01220   3.9535E-03 -2.9995E-03  4.9626E-03  -37.187
     7    1   0.0000   0.0000  -0.1708  0.01220   4.5288E-03 -3.4018E-03  5.6641E-03  -36.912
     8    1   0.0000   0.0000  -0.1586  0.01220   5.0748E-03 -3.7724E-03  6.3233E-03  -36.626
     9    1   0.0000   0.0000  -0.1464  0.01220   5.5900E-03 -4.1102E-03  6.9384E-03  -36.326
    10    1   0.0000   0.0000  -0.1342  0.01220   6.0727E-03 -4.4140E-03  7.5074E-03  -36.012
    11    1   0.0000   0.0000  -0.1220  0.01220   6.5209E-03 -4.6825E-03  8.0280E-03  -35.681
    12    1   0.0000   0.0000  -0.1098  0.01220   6.9329E-03 -4.9143E-03  8.4980E-03  -35.331
    13    1   0.0000   0.0000  -0.0976  0.01220   7.3069E-03 -5.1082E-03  8.9154E-03  -34.957
    14    1   0.0000   0.0000  -0.0854  0.01220   7.6411E-03 -5.2628E-03  9.2781E-03  -34.557
    15    1   0.0000   0.0000  -0.0732  0.01220   7.9340E-03 -5.3768E-03  9.5843E-03  -34.125
    16    1   0.0000   0.0000  -0.0610  0.01220   8.1843E-03 -5.4489E-03  9.8322E-03  -33.655
    17    1   0.0000   0.0000  -0.0488  0.01220   8.3907E-03 -5.4773E-03  1.0020E-02  -33.136
    18    1   0.0000   0.0000  -0.0366  0.01220   8.5523E-03 -5.4597E-03  1.0146E-02  -32.554
    19    1   0.0000   0.0000  -0.0244  0.01220   8.6683E-03 -5.3916E-03  1.0208E-02  -31.881
    20    1   0.0000   0.0000  -0.0122  0.01220   8.7381E-03 -5.2563E-03  1.0197E-02  -31.028
    21    1   0.0000   0.0000   0.0000  0.01220   8.7614E-03 -5.0764E-03  1.0126E-02  -30.088
    22    1   0.0000   0.0000   0.0122  0.01220   8.7380E-03 -5.2559E-03  1.0197E-02  -31.027
    23    1   0.0000   0.0000   0.0244  0.01220   8.6681E-03 -5.3909E-03  1.0208E-02  -31.878
    24    1   0.0000   0.0000   0.0366  0.01220   8.5521E-03 -5.4586E-03  1.0146E-02  -32.549
    25    1   0.0000   0.0000   0.0488  0.01220   8.3904E-03 -5.4759E-03  1.0019E-02  -33.130
    26    1   0.0000   0.0000   0.0610  0.01220   8.1839E-03 -5.4472E-03  9.8310E-03  -33.647
    27    1   0.0000   0.0000   0.0732  0.01220   7.9336E-03 -5.3748E-03  9.5828E-03  -34.117
    28    1   0.0000   0.0000   0.0854  0.01220   7.6406E-03 -5.2605E-03  9.2764E-03  -34.547
    29    1   0.0000   0.0000   0.0976  0.01220   7.3063E-03 -5.1057E-03  8.9135E-03  -34.946
    30    1   0.0000   0.0000   0.1098  0.01220   6.9324E-03 -4.9117E-03  8.4960E-03  -35.318
    31    1   0.0000   0.0000   0.1220  0.01220   6.5203E-03 -4.6797E-03  8.0259E-03  -35.667
    32    1   0.0000   0.0000   0.1342  0.01220   6.0720E-03 -4.4111E-03  7.5052E-03  -35.997
    33    1   0.0000   0.0000   0.1464  0.01220   5.5894E-03 -4.1073E-03  6.9362E-03  -36.310
    34    1   0.0000   0.0000   0.1586  0.01220   5.0741E-03 -3.7695E-03  6.3211E-03  -36.608
    35    1   0.0000   0.0000   0.1708  0.01220   4.5282E-03 -3.3990E-03  5.6619E-03  -36.893
    36    1   0.0000   0.0000   0.1830  0.01220   3.9530E-03 -2.9969E-03  4.9606E-03  -37.167
    37    1   0.0000   0.0000   0.1953  0.01220   3.3496E-03 -2.5639E-03  4.2182E-03  -37.431
    38    1   0.0000   0.0000   0.2075  0.01220   2.7181E-03 -2.0999E-03  3.4348E-03  -37.687
    39    1   0.0000   0.0000   0.2197  0.01220   2.0564E-03 -1.6030E-03  2.6074E-03  -37.937
    40    1   0.0000   0.0000   0.2319  0.01220   1.3571E-03 -1.0672E-03  1.7264E-03  -38.181
    41    1   0.0000   0.0000   0.2441  0.01220   5.6561E-04 -4.4856E-04  7.2189E-04  -38.416
    42    2   2.0013   0.0000   0.7566  0.01220  -1.7804E-05  4.1224E-05  4.4905E-05  113.359
    43    2   2.0013   0.0000   0.7688  0.01220  -4.3106E-05  9.9326E-05  1.0828E-04  113.460
    44    2   2.0013   0.0000   0.7810  0.01220  -6.5897E-05  1.5113E-04  1.6487E-04  113.559
    45    2   2.0013   0.0000   0.7932  0.01220  -8.7838E-05  2.0054E-04  2.1893E-04  113.654
    46    2   2.0013   0.0000   0.8054  0.01220  -1.0912E-04  2.4806E-04  2.7100E-04  113.745
    47    2   2.0013   0.0000   0.8176  0.01220  -1.2979E-04  2.9382E-04  3.2120E-04  113.832
    48    2   2.0013   0.0000   0.8298  0.01220  -1.4980E-04  3.3776E-04  3.6949E-04  113.917
    49    2   2.0013   0.0000   0.8420  0.01220  -1.6909E-04  3.7979E-04  4.1573E-04  113.999
    50    2   2.0013   0.0000   0.8542  0.01220  -1.8759E-04  4.1976E-04  4.5977E-04  114.080
    51    2   2.0013   0.0000   0.8664  0.01220  -2.0520E-04  4.5751E-04  5.0142E-04  114.158
    52    2   2.0013   0.0000   0.8786  0.01220  -2.2185E-04  4.9286E-04  5.4049E-04  114.234
    53    2   2.0013   0.0000   0.8908  0.01220  -2.3743E-04  5.2565E-04  5.7678E-04  114.308
    54    2   2.0013   0.0000   0.9030  0.01220  -2.5186E-04  5.5571E-04  6.1012E-04  114.381
    55    2   2.0013   0.0000   0.9152  0.01220  -2.6506E-04  5.8290E-04  6.4033E-04  114.452
    56    2   2.0013   0.0000   0.9274  0.01220  -2.7694E-04  6.0706E-04  6.6724E-04  114.522
    57    2   2.0013   0.0000   0.9397  0.01220  -2.8743E-04  6.2805E-04  6.9070E-04  114.591
    58    2   2.0013   0.0000   0.9519  0.01220  -2.9646E-04  6.4577E-04  7.1057E-04  114.659
    59    2   2.0013   0.0000   0.9641  0.01220  -3.0397E-04  6.6010E-04  7.2673E-04  114.726
    60    2   2.0013   0.0000   0.9763  0.01220  -3.0991E-04  6.7097E-04  7.3908E-04  114.792
    61    2   2.0013   0.0000   0.9885  0.01220  -3.1423E-04  6.7828E-04  7.4753E-04  114.857
    62    2   2.0013   0.0000   1.0007  0.01220  -3.1688E-04  6.8200E-04  7.5202E-04  114.921
    63    2   2.0013   0.0000   1.0129  0.01220  -3.1784E-04  6.8208E-04  7.5250E-04  114.985
    64    2   2.0013   0.0000   1.0251  0.01220  -3.1708E-04  6.7851E-04  7.4895E-04  115.048
    65    2   2.0013   0.0000   1.0373  0.01220  -3.1460E-04  6.7129E-04  7.4135E-04  115.110
    66    2   2.0013   0.0000   1.0495  0.01220  -3.1038E-04  6.6043E-04  7.2973E-04  115.172
    67    2   2.0013   0.0000   1.0617  0.01220  -3.0443E-04  6.4596E-04  7.1410E-04  115.234
    68    2   2.0013   0.0000   1.0739  0.01220  -2.9676E-04  6.2794E-04  6.9454E-04  115.295
    69    2   2.0013   0.0000   1.0861  0.01220  -2.8739E-04  6.0644E-04  6.7109E-04  115.356
    70    2   2.0013   0.0000   1.0983  0.01220  -2.7635E-04  5.8154E-04  6.4386E-04  115.417
    71    2   2.0013   0.0000   1.1105  0.01220  -2.6366E-04  5.5333E-04  6.1293E-04  115.478
    72    2   2.0013   0.0000   1.1227  0.01220  -2.4937E-04  5.2192E-04  5.7843E-04  115.538
    73    2   2.0013   0.0000   1.1349  0.01220  -2.3352E-04  4.8743E-04  5.4048E-04  115.599
    74    2   2.0013   0.0000   1.1471  0.01220  -2.1617E-04  4.4999E-04  4.9922E-04  115.659
    75    2   2.0013   0.0000   1.1593  0.01220  -1.9735E-04  4.0971E-04  4.5476E-04  115.719
    76    2   2.0013   0.0000   1.1715  0.01220  -1.7712E-04  3.6672E-04  4.0725E-04  115.780
    77    2   2.0013   0.0000   1.1837  0.01220  -1.5551E-04  3.2110E-04  3.5678E-04  115.841
    78    2   2.0013   0.0000   1.1959  0.01220  -1.3254E-04  2.7293E-04  3.0341E-04  115.901
    79    2   2.0013   0.0000   1.2081  0.01220  -1.0819E-04  2.2218E-04  2.4712E-04  115.963
    80    2   2.0013   0.0000   1.2203  0.01220  -8.2337E-05  1.6863E-04  1.8766E-04  116.024
    81    2   2.0013   0.0000   1.2325  0.01220  -5.4669E-05  1.1166E-04  1.2432E-04  116.087
    82    2   2.0013   0.0000   1.2447  0.01220  -2.2925E-05  4.6694E-05  5.2018E-05  116.149



                                        - - - POWER BUDGET - - -

                                           INPUT POWER   = 4.3807E-03 WATTS
                                           RADIATED POWER= 4.3807E-03 WATTS
                                           STRUCTURE LOSS= 0.0000E+00 WATTS
                                           NETWORK LOSS  = 0.0000E+00 WATTS
                                           EFFICIENCY    = 100.00 PERCENT



                                                - - - RADIATION PATTERNS - - -

  - - ANGLES - -           - POWER GAINS -       - - - POLARIZATION - - -    - - - E(THETA) - - -    - - - E(PHI) - - -
  THETA     PHI        VERT.   HOR.    TOTAL      AXIAL     TILT   SENSE     MAGNITUDE    PHASE      MAGNITUDE    PHASE 
 DEGREES  DEGREES       DB      DB      DB        RATIO     DEG.              VOLTS/M    DEGREES      VOLTS/M    DEGREES
 -180.00     0.00    -999.99 -999.99 -999.99    0.00000     0.00            4.87174E-12    58.49    0.00000E+00     0.00
 -175.00     0.00     -21.19 -999.99  -21.19    0.00000     0.00  LINEAR    4.46737E-02  -119.81    0.00000E+00     0.00
 -170.00     0.00     -14.68 -999.99  -14.68    0.00000     0.00  LINEAR    9.45632E-02  -122.11    0.00000E+00     0.00
 -165.00     0.00     -11.12 -999.99  -11.12    0.00000     0.00  LINEAR    1.42417E-01  -125.68    0.00000E+00     0.00
 -160.00     0.00      -8.97 -999.99   -8.97    0.00000     0.00  LINEAR    1.82473E-01  -127.90    0.00000E+00     0.00
 -155.00     0.00      -7.47 -999.99   -7.47    0.00000     0.00  LINEAR    2.16755E-01  -127.57    0.00000E+00     0.00
 -150.00     0.00      -6.13 -999.99   -6.13    0.00000     0.00  LINEAR    2.52927E-01  -125.23    0.00000E+00     0.00
 -145.00     0.00      -4.74 -999.99   -4.74    0.00000     0.00  LINEAR    2.97014E-01  -122.56    0.00000E+00     0.00
 -140.00     0.00      -3.34 -999.99   -3.34    0.00000     0.00  LINEAR    3.48923E-01  -120.82    0.00000E+00     0.00
 -135.00     0.00      -2.06 -999.99   -2.06    0.00000     0.00  LINEAR    4.04449E-01  -120.17    0.00000E+00     0.00
 -130.00     0.00      -0.96 -999.99   -0.96    0.00000     0.00  LINEAR    4.59063E-01  -120.22    0.00000E+00     0.00
 -125.00     0.00      -0.05 -999.99   -0.05    0.00000     0.00  LINEAR    5.09612E-01  -120.52    0.00000E+00     0.00
 -120.00     0.00       0.68 -999.99    0.68    0.00000     0.00  LINEAR    5.54179E-01  -120.78    0.00000E+00     0.00
 -115.00     0.00       1.24 -999.99    1.24    0.00000     0.00  LINEAR    5.91326E-01  -120.85    0.00000E+00     0.00
 -110.00     0.00       1.65 -999.99    1.65    0.00000     0.00  LINEAR    6.19464E-01  -120.73    0.00000E+00     0.00
 -105.00     0.00       1.89 -999.99    1.89    0.00000     0.00  LINEAR    6.36736E-01  -120.50    0.00000E+00     0.00
 -100.00     0.00       1.95 -999.99    1.95    0.00000     0.00  LINEAR    6.41667E-01  -120.40    0.00000E+00     0.00
  -95.00     0.00       1.86 -999.99    1.86    0.00000     0.00  LINEAR    6.34828E-01  -120.84    0.00000E+00     0.00
  -90.00     0.00       1.67 -999.99    1.67    0.00000     0.00  LINEAR    6.21126E-01  -122.25    0.00000E+00     0.00
  -85.00     0.00       1.52 -999.99    1.52    0.00000     0.00  LINEAR    6.10527E-01  -124.71    0.00000E+00     0.00
  -80.00     0.00       1.55 -999.99    1.55    0.00000     0.00  LINEAR    6.12868E-01  -127.35    0.00000E+00     0.00
  -75.00     0.00       1.75 -999.99    1.75    0.00000     0.00  LINEAR    6.26603E-01  -128.49    0.00000E+00     0.00
  -70.00     0.00       1.85 -999.99    1.85    0.00000     0.00  LINEAR    6.33844E-01  -127.09    0.00000E+00     0.00
  -65.00     0.00       1.54 -999.99    1.54    0.00000     0.00  LINEAR    6.11952E-01  -123.79    0.00000E+00     0.00
  -60.00     0.00       0.66 -999.99    0.66    0.00000     0.00  LINEAR    5.53093E-01  -120.76    0.00000E+00     0.00
  -55.00     0.00      -0.62 -999.99   -0.62    0.00000     0.00  LINEAR    4.77310E-01  -120.91    0.00000E+00     0.00
  -50.00     0.00      -1.66 -999.99   -1.66    0.00000     0.00  LINEAR    4.23336E-01  -124.99    0.00000E+00     0.00
  -45.00     0.00      -2.06 -999.99   -2.06    0.00000     0.00  LINEAR    4.04120E-01  -128.18    0.00000E+00     0.00
  -40.00     0.00      -2.47 -999.99   -2.47    0.00000     0.00  LINEAR    3.85530E-01  -126.46    0.00000E+00     0.00
  -35.00     0.00      -3.63 -999.99   -3.63    0.00000     0.00  LINEAR    3.37462E-01  -122.09    0.00000E+00     0.00
  -30.00     0.00      -5.62 -999.99   -5.62    0.00000     0.00  LINEAR    2.68269E-01  -120.04    0.00000E+00     0.00
  -25.00     0.00      -7.77 -999.99   -7.77    0.00000     0.00  LINEAR    2.09408E-01  -123.42    0.00000E+00     0.00
  -20.00     0.00      -9.40 -999.99   -9.40    0.00000     0.00  LINEAR    1.73665E-01  -127.67    0.00000E+00     0.00
  -15.00     0.00     -11.26 -999.99  -11.26    0.00000     0.00  LINEAR    1.40231E-01  -126.82    0.00000E+00     0.00
  -10.00     0.00     -14.66 -999.99  -14.66    0.00000     0.00  LINEAR    9.47786E-02  -122.63    0.00000E+00     0.00
   -5.00     0.00     -21.20 -999.99  -21.20    0.00000     0.00  LINEAR    4.46320E-02  -119.88    0.00000E+00     0.00
    0.00     0.00    -999.99 -999.99 -999.99    0.00000     0.00            0.00000E+00     0.00    0.00000E+00     0.00
 -180.00     5.00    -999.99 -999.99 -999.99    0.00000     0.00            4.87174E-12    58.49    0.00000E+00     0.00
 -175.00     5.00     -21.20 -999.99  -21.20    0.00000     0.00  LINEAR    4.46605E-02  -119.81    0.00000E+00     0.00
 -170.00     5.00     -14.68 -999.99  -14.68    0.00000     0.00  LINEAR    9.45400E-02  -122.08    0.00000E+00     0.00
 -165.00     5.00     -11.12 -999.99  -11.12    0.00000     0.00  LINEAR    1.42467E-01  -125.63    0.00000E+00     0.00
 -160.00     5.00      -8.96 -999.99   -8.96    0.00000     0.00  LINEAR    1.82674E-01  -127.88    0.00000E+00     0.00
 -155.00     5.00      -7.46 -999.99   -7.46    0.00000     0.00  LINEAR    2.17040E-01  -127.61    0.00000E+00     0.00
 -150.00     5.00      -6.13 -999.99   -6.13    0.00000     0.00  LINEAR    2.53067E-01  -125.33    0.00000E+00     0.00
 -145.00     5.00      -4.74 -999.99   -4.74    0.00000     0.00  LINEAR    2.96789E-01  -122.68    0.00000E+00     0.00
 -140.00     5.00      -3.36 -999.99   -3.36    0.00000     0.00  LINEAR    3.48280E-01  -120.90    0.00000E+00     0.00
 -135.00     5.00      -2.08 -999.99   -2.08    0.00000     0.00  LINEAR    4.03476E-01  -120.20    0.00000E+00     0.00
 -130.00     5.00      -0.98 -999.99   -0.98    0.00000     0.00  LINEAR    4.57886E-01  -120.19    0.00000E+00     0.00
 -125.00     5.00      -0.07 -999.99   -0.07    0.00000     0.00  LINEAR    5.08316E-01  -120.46    0.00000E+00     0.00
 -120.00     5.00       0.66 -999.99    0.66    0.00000     0.00  LINEAR    5.52781E-01  -120.70    0.00000E+00     0.00
 -115.00     5.00       1.22 -999.99    1.22    0.00000     0.00  LINEAR    5.89782E-01  -120.77    0.00000E+00     0.00
 -110.00     5.00       1.62 -999.99    1.62    0.00000     0.00  LINEAR    6.17705E-01  -120.66    0.00000E+00     0.00
 -105.00     5.00       1.86 -999.99    1.86    0.00000     0.00  LINEAR    6.34731E-01  -120.46    0.00000E+00     0.00
 -100.00     5.00       1.92 -999.99    1.92    0.00000     0.00  LINEAR    6.39518E-01  -120.42    0.00000E+00     0.00
  -95.00     5.00       1.83 -999.99    1.83    0.00000     0.00  LINEAR    6.32870E-01  -120.93    0.00000E+00     0.00
  -90.00     5.00       1.65 -999.99    1.65    0.00000     0.00  LINEAR    6.19946E-01  -122.42    0.00000E+00     0.00
  -85.00     5.00       1.52 -999.99    1.52    0.00000     0.00  LINEAR    6.10715E-01  -124.92    0.00000E+00     0.00
  -80.00     5.00       1.58 -999.99    1.58    0.00000     0.00  LINEAR    6.14438E-01  -127.49    0.00000E+00     0.00
  -75.00     5.00       1.77 -999.99    1.77    0.00000     0.00  LINEAR    6.28649E-01  -128.48    0.00000E+00     0.00
  -70.00     5.00       1.86 -999.99    1.86    0.00000     0.00  LINEAR    6.35077E-01  -126.96    0.00000E+00     0.00
  -65.00     5.00       1.54 -999.99    1.54    0.00000     0.00  LINEAR    6.11657E-01  -123.62    0.00000E+00     0.00
  -60.00     5.00       0.64 -999.99    0.64    0.00000     0.00  LINEAR    5.51686E-01  -120.69    0.00000E+00     0.00
  -55.00     5.00      -0.64 -999.99   -0.64    0.00000     0.00  LINEAR    4.76172E-01  -121.00    0.00000E+00     0.00
  -50.00     5.00      -1.66 -999.99   -1.66    0.00000     0.00  LINEAR    4.23571E-01  -125.14    0.00000E+00     0.00
  -45.00     5.00      -2.04 -999.99   -2.04    0.00000     0.00  LINEAR    4.05086E-01  -128.21    0.00000E+00     0.00
  -40.00     5.00      -2.46 -999.99   -2.46    0.00000     0.00  LINEAR    3.85972E-01  -126.36    0.00000E+00     0.00
  -35.00     5.00      -3.64 -999.99   -3.64    0.00000     0.00  LINEAR    3.37148E-01  -121.99    0.00000E+00     0.00
  -30.00     5.00      -5.64 -999.99   -5.64    0.00000     0.00  LINEAR    2.67815E-01  -120.06    0.00000E+00     0.00
  -25.00     5.00      -7.78 -999.99   -7.78    0.00000     0.00  LINEAR    2.09364E-01  -123.51    0.00000E+00     0.00
  -20.00     5.00      -9.39 -999.99   -9.39    0.00000     0.00  LINEAR    1.73855E-01  -127.70    0.00000E+00     0.00
  -15.00     5.00     -11.25 -999.99  -11.25    0.00000     0.00  LINEAR    1.40314E-01  -126.79    0.00000E+00     0.00
  -10.00     5.00     -14.66 -999.99  -14.66    0.00000     0.00  LINEAR    9.47618E-02  -122.60    0.00000E+00     0.00
   -5.00     5.00     -21.20 -999.99  -21.20    0.00000     0.00  LINEAR    4.46190E-02  -119.88    0.00000E+00     0.00
    0.00     5.00    -999.99 -999.99 -999.99    0.00000     0.00            0.00000E+00     0.00    0.00000E+00     0.00
 -180.00    10.00    -999.99 -999.99 -999.99    0.00000     0.00            4.87174E-12    58.49    0.00000E+00     0.00
 -175.00    10.00     -21.20 -999.99  -21.20    0.00000     0.00  LINEAR    4.46212E-02  -119.80    0.00000E+00     0.00
 -170.00    10.00     -14.69 -999.99  -14.69    0.00000     0.00  LINEAR    9.44682E-02  -122.00    0.00000E+00     0.00
 -165.00    10.00     -11.11 -999.99  -11.11    0.00000     0.00  LINEAR    1.42609E-01  -125.50    0.00000E+00     0.00
 -160.00    10.00      -8.93 -999.99   -8.93    0.00000     0.00  LINEAR    1.83270E-01  -127.82    0.00000E+00     0.00
 -155.00    10.00      -7.43 -999.99   -7.43    0.00000     0.00  LINEAR    2.17912E-01  -127.73    0.00000E+00     0.00
 -150.00    10.00      -6.11 -999.99   -6.11    0.00000     0.00  LINEAR    2.53553E-01  -125.63    0.00000E+00     0.00
 -145.00    10.00      -4.76 -999.99   -4.76    0.00000     0.00  LINEAR    2.96220E-01  -123.02    0.00000E+00     0.00
 -140.00    10.00      -3.40 -999.99   -3.40    0.00000     0.00  LINEAR    3.46450E-01  -121.15    0.00000E+00     0.00
 -135.00    10.00      -2.14 -999.99   -2.14    0.00000     0.00  LINEAR    4.00611E-01  -120.30    0.00000E+00     0.00
 -130.00    10.00      -1.05 -999.99   -1.05    0.00000     0.00  LINEAR    4.54339E-01  -120.16    0.00000E+00     0.00
 -125.00    10.00      -0.14 -999.99   -0.14    0.00000     0.00  LINEAR    5.04340E-01  -120.33    0.00000E+00     0.00
 -120.00    10.00       0.59 -999.99    0.59    0.00000     0.00  LINEAR    5.48437E-01  -120.51    0.00000E+00     0.00
 -115.00    10.00       1.15 -999.99    1.15    0.00000     0.00  LINEAR    5.84967E-01  -120.56    0.00000E+00     0.00
 -110.00    10.00       1.54 -999.99    1.54    0.00000     0.00  LINEAR    6.12261E-01  -120.48    0.00000E+00     0.00
 -105.00    10.00       1.77 -999.99    1.77    0.00000     0.00  LINEAR    6.28638E-01  -120.38    0.00000E+00     0.00
 -100.00    10.00       1.84 -999.99    1.84    0.00000     0.00  LINEAR    6.33168E-01  -120.52    0.00000E+00     0.00
  -95.00    10.00       1.76 -999.99    1.76    0.00000     0.00  LINEAR    6.27349E-01  -121.27    0.00000E+00     0.00
  -90.00    10.00       1.61 -999.99    1.61    0.00000     0.00  LINEAR    6.17013E-01  -122.98    0.00000E+00     0.00
  -85.00    10.00       1.54 -999.99    1.54    0.00000     0.00  LINEAR    6.11946E-01  -125.53    0.00000E+00     0.00
  -80.00    10.00       1.65 -999.99    1.65    0.00000     0.00  LINEAR    6.19541E-01  -127.85    0.00000E+00     0.00
  -75.00    10.00       1.86 -999.99    1.86    0.00000     0.00  LINEAR    6.34719E-01  -128.41    0.00000E+00     0.00
  -70.00    10.00       1.91 -999.99    1.91    0.00000     0.00  LINEAR    6.38381E-01  -126.54    0.00000E+00     0.00
  -65.00    10.00       1.52 -999.99    1.52    0.00000     0.00  LINEAR    6.10363E-01  -123.15    0.00000E+00     0.00
  -60.00    10.00       0.57 -999.99    0.57    0.00000     0.00  LINEAR    5.47326E-01  -120.50    0.00000E+00     0.00
  -55.00    10.00      -0.70 -999.99   -0.70    0.00000     0.00  LINEAR    4.72969E-01  -121.32    0.00000E+00     0.00
  -50.00    10.00      -1.64 -999.99   -1.64    0.00000     0.00  LINEAR    4.24542E-01  -125.60    0.00000E+00     0.00
  -45.00    10.00      -1.98 -999.99   -1.98    0.00000     0.00  LINEAR    4.08004E-01  -128.25    0.00000E+00     0.00
  -40.00    10.00      -2.44 -999.99   -2.44    0.00000     0.00  LINEAR    3.87178E-01  -126.06    0.00000E+00     0.00
  -35.00    10.00      -3.66 -999.99   -3.66    0.00000     0.00  LINEAR    3.36125E-01  -121.73    0.00000E+00     0.00
  -30.00    10.00      -5.68 -999.99   -5.68    0.00000     0.00  LINEAR    2.66469E-01  -120.12    0.00000E+00     0.00
  -25.00    10.00      -7.78 -999.99   -7.78    0.00000     0.00  LINEAR    2.09275E-01  -123.77    0.00000E+00     0.00
  -20.00    10.00      -9.36 -999.99   -9.36    0.00000     0.00  LINEAR    1.74431E-01  -127.77    0.00000E+00     0.00
  -15.00    10.00     -11.24 -999.99  -11.24    0.00000     0.00  LINEAR    1.40556E-01  -126.69    0.00000E+00     0.00
  -10.00    10.00     -14.67 -999.99  -14.67    0.00000     0.00  LINEAR    9.47092E-02  -122.51    0.00000E+00     0.00
   -5.00    10.00     -21.21 -999.99  -21.21    0.00000     0.00  LINEAR    4.45803E-02  -119.87    0.00000E+00     0.00
    0.00    10.00    -999.99 -999.99 -999.99    0.00000     0.00            0.00000E+00     0.00    0.00000E+00     0.00
 -180.00    15.00    -999.99 -999.99 -999.99    0.00000     0.00            4.87174E-12    58.49    0.00000E+00     0.00
 -175.00    15.00     -21.22 -999.99  -21.22    0.00000     0.00  LINEAR    4.45557E-02  -119.79    0.00000E+00     0.00
 -170.00    15.00     -14.70 -999.99  -14.70    0.00000     0.00  LINEAR    9.43418E-02  -121.86    0.00000E+00     0.00
 -165.00    15.00     -11.10 -999.99  -11.10    0.00000     0.00  LINEAR    1.42819E-01  -125.28    0.00000E+00     0.00
 -160.00    15.00      -8.89 -999.99   -8.89    0.00000     0.00  LINEAR    1.84233E-01  -127.69    0.00000E+00     0.00
 -155.00    15.00      -7.37 -999.99   -7.37    0.00000     0.00  LINEAR    2.19413E-01  -127.89    0.00000E+00     0.00
 -150.00    15.00      -6.08 -999.99   -6.08    0.00000     0.00  LINEAR    2.54574E-01  -126.09    0.00000E+00     0.00
 -145.00    15.00      -4.78 -999.99   -4.78    0.00000     0.00  LINEAR    2.95627E-01  -123.61    0.00000E+00     0.00
 -140.00    15.00      -3.47 -999.99   -3.47    0.00000     0.00  LINEAR    3.43772E-01  -121.64    0.00000E+00     0.00
 -135.00    15.00      -2.24 -999.99   -2.24    0.00000     0.00  LINEAR    3.96082E-01  -120.58    0.00000E+00     0.00
 -130.00    15.00      -1.16 -999.99   -1.16    0.00000     0.00  LINEAR    4.48466E-01  -120.22    0.00000E+00     0.00
 -125.00    15.00      -0.26 -999.99   -0.26    0.00000     0.00  LINEAR    4.97528E-01  -120.22    0.00000E+00     0.00
 -120.00    15.00       0.47 -999.99    0.47    0.00000     0.00  LINEAR    5.40837E-01  -120.31    0.00000E+00     0.00
 -115.00    15.00       1.02 -999.99    1.02    0.00000     0.00  LINEAR    5.76509E-01  -120.35    0.00000E+00     0.00
 -110.00    15.00       1.41 -999.99    1.41    0.00000     0.00  LINEAR    6.02849E-01  -120.35    0.00000E+00     0.00
 -105.00    15.00       1.63 -999.99    1.63    0.00000     0.00  LINEAR    6.18473E-01  -120.43    0.00000E+00     0.00
 -100.00    15.00       1.70 -999.99    1.70    0.00000     0.00  LINEAR    6.23191E-01  -120.86    0.00000E+00     0.00
  -95.00    15.00       1.65 -999.99    1.65    0.00000     0.00  LINEAR    6.19586E-01  -121.98    0.00000E+00     0.00
  -90.00    15.00       1.57 -999.99    1.57    0.00000     0.00  LINEAR    6.14270E-01  -123.98    0.00000E+00     0.00
  -85.00    15.00       1.60 -999.99    1.60    0.00000     0.00  LINEAR    6.16115E-01  -126.47    0.00000E+00     0.00
  -80.00    15.00       1.78 -999.99    1.78    0.00000     0.00  LINEAR    6.29082E-01  -128.28    0.00000E+00     0.00
  -75.00    15.00       1.99 -999.99    1.99    0.00000     0.00  LINEAR    6.44364E-01  -128.13    0.00000E+00     0.00
  -70.00    15.00       1.96 -999.99    1.96    0.00000     0.00  LINEAR    6.42479E-01  -125.78    0.00000E+00     0.00
  -65.00    15.00       1.47 -999.99    1.47    0.00000     0.00  LINEAR    6.06892E-01  -122.40    0.00000E+00     0.00
  -60.00    15.00       0.45 -999.99    0.45    0.00000     0.00  LINEAR    5.39735E-01  -120.33    0.00000E+00     0.00
  -55.00    15.00      -0.78 -999.99   -0.78    0.00000     0.00  LINEAR    4.68432E-01  -121.93    0.00000E+00     0.00
  -50.00    15.00      -1.59 -999.99   -1.59    0.00000     0.00  LINEAR    4.27003E-01  -126.31    0.00000E+00     0.00
  -45.00    15.00      -1.88 -999.99   -1.88    0.00000     0.00  LINEAR    4.12860E-01  -128.23    0.00000E+00     0.00
  -40.00    15.00      -2.40 -999.99   -2.40    0.00000     0.00  LINEAR    3.88775E-01  -125.53    0.00000E+00     0.00
  -35.00    15.00      -3.71 -999.99   -3.71    0.00000     0.00  LINEAR    3.34177E-01  -121.33    0.00000E+00     0.00
  -30.00    15.00      -5.75 -999.99   -5.75    0.00000     0.00  LINEAR    2.64291E-01  -120.26    0.00000E+00     0.00
  -25.00    15.00      -7.78 -999.99   -7.78    0.00000     0.00  LINEAR    2.09265E-01  -124.20    0.00000E+00     0.00
  -20.00    15.00      -9.31 -999.99   -9.31    0.00000     0.00  LINEAR    1.75410E-01  -127.88    0.00000E+00     0.00
  -15.00    15.00     -11.21 -999.99  -11.21    0.00000     0.00  LINEAR    1.40938E-01  -126.51    0.00000E+00     0.00
  -10.00    15.00     -14.67 -999.99  -14.67    0.00000     0.00  LINEAR    9.46146E-02  -122.36    0.00000E+00     0.00
   -5.00    15.00     -21.22 -999.99  -21.22    0.00000     0.00  LINEAR    4.45158E-02  -119.87    0.00000E+00     0.00
    0.00    15.00    -999.99 -999.99 -999.99    0.00000     0.00            0.00000E+00     0.00    0.00000E+00     0.00
 -180.00    20.00    -999.99 -999.99 -999.99    0.00000     0.00            4.87174E-12    58.49    0.00000E+00     0.00
 -175.00    20.00     -21.23 -999.99  -21.23    0.00000     0.00  LINEAR    4.44646E-02  -119.78    0.00000E+00     0.00
 -170.00    20.00     -14.72 -999.99  -14.72    0.00000     0.00  LINEAR    9.41517E-02  -121.67    0.00000E+00     0.00
 -165.00    20.00     -11.08 -999.99  -11.08    0.00000     0.00  LINEAR    1.43057E-01  -124.97    0.00000E+00     0.00
 -160.00    20.00      -8.83 -999.99   -8.83    0.00000     0.00  LINEAR    1.85514E-01  -127.48    0.00000E+00     0.00
 -155.00    20.00      -7.28 -999.99   -7.28    0.00000     0.00  LINEAR    2.21584E-01  -128.04    0.00000E+00     0.00
 -150.00    20.00      -6.02 -999.99   -6.02    0.00000     0.00  LINEAR    2.56407E-01  -126.68    0.00000E+00     0.00
 -145.00    20.00      -4.78 -999.99   -4.78    0.00000     0.00  LINEAR    2.95552E-01  -124.44    0.00000E+00     0.00
 -140.00    20.00      -3.54 -999.99   -3.54    0.00000     0.00  LINEAR    3.40908E-01  -122.43    0.00000E+00     0.00
 -135.00    20.00      -2.36 -999.99   -2.36    0.00000     0.00  LINEAR    3.90476E-01  -121.14    0.00000E+00     0.00
 -130.00    20.00      -1.31 -999.99   -1.31    0.00000     0.00  LINEAR    4.40650E-01  -120.53    0.00000E+00     0.00
 -125.00    20.00      -0.42 -999.99   -0.42    0.00000     0.00  LINEAR    4.88032E-01  -120.32    0.00000E+00     0.00
 -120.00    20.00       0.29 -999.99    0.29    0.00000     0.00  LINEAR    5.29971E-01  -120.30    0.00000E+00     0.00
 -115.00    20.00       0.84 -999.99    0.84    0.00000     0.00  LINEAR    5.64405E-01  -120.36    0.00000E+00     0.00
 -110.00    20.00       1.22 -999.99    1.22    0.00000     0.00  LINEAR    5.89734E-01  -120.49    0.00000E+00     0.00
 -105.00    20.00       1.44 -999.99    1.44    0.00000     0.00  LINEAR    6.05120E-01  -120.86    0.00000E+00     0.00
 -100.00    20.00       1.53 -999.99    1.53    0.00000     0.00  LINEAR    6.11433E-01  -121.70    0.00000E+00     0.00
  -95.00    20.00       1.55 -999.99    1.55    0.00000     0.00  LINEAR    6.12478E-01  -123.23    0.00000E+00     0.00
  -90.00    20.00       1.59 -999.99    1.59    0.00000     0.00  LINEAR    6.15106E-01  -125.41    0.00000E+00     0.00
  -85.00    20.00       1.73 -999.99    1.73    0.00000     0.00  LINEAR    6.25791E-01  -127.55    0.00000E+00     0.00
  -80.00    20.00       1.98 -999.99    1.98    0.00000     0.00  LINEAR    6.43614E-01  -128.51    0.00000E+00     0.00
  -75.00    20.00       2.15 -999.99    2.15    0.00000     0.00  LINEAR    6.56130E-01  -127.45    0.00000E+00     0.00
  -70.00    20.00       2.00 -999.99    2.00    0.00000     0.00  LINEAR    6.45057E-01  -124.63    0.00000E+00     0.00
  -65.00    20.00       1.36 -999.99    1.36    0.00000     0.00  LINEAR    5.99572E-01  -121.49    0.00000E+00     0.00
  -60.00    20.00       0.27 -999.99    0.27    0.00000     0.00  LINEAR    5.28955E-01  -120.36    0.00000E+00     0.00
  -55.00    20.00      -0.86 -999.99   -0.86    0.00000     0.00  LINEAR    4.64052E-01  -122.96    0.00000E+00     0.00
  -50.00    20.00      -1.48 -999.99   -1.48    0.00000     0.00  LINEAR    4.32006E-01  -127.16    0.00000E+00     0.00
  -45.00    20.00      -1.74 -999.99   -1.74    0.00000     0.00  LINEAR    4.19423E-01  -128.01    0.00000E+00     0.00
  -40.00    20.00      -2.37 -999.99   -2.37    0.00000     0.00  LINEAR    3.90113E-01  -124.76    0.00000E+00     0.00
  -35.00    20.00      -3.80 -999.99   -3.80    0.00000     0.00  LINEAR    3.31001E-01  -120.85    0.00000E+00     0.00
  -30.00    20.00      -5.85 -999.99   -5.85    0.00000     0.00  LINEAR    2.61433E-01  -120.55    0.00000E+00     0.00
  -25.00    20.00      -7.77 -999.99   -7.77    0.00000     0.00  LINEAR    2.09536E-01  -124.81    0.00000E+00     0.00
  -20.00    20.00      -9.24 -999.99   -9.24    0.00000     0.00  LINEAR    1.76805E-01  -127.97    0.00000E+00     0.00
  -15.00    20.00     -11.18 -999.99  -11.18    0.00000     0.00  LINEAR    1.41424E-01  -126.25    0.00000E+00     0.00
  -10.00    20.00     -14.69 -999.99  -14.69    0.00000     0.00  LINEAR    9.44677E-02  -122.16    0.00000E+00     0.00
   -5.00    20.00     -21.24 -999.99  -21.24    0.00000     0.00  LINEAR    4.44261E-02  -119.86    0.00000E+00     0.00
    0.00    20.00    -999.99 -999.99 -999.99    0.00000     0.00            0.00000E+00     0.00    0.00000E+00     0.00
 -180.00    25.00    -999.99 -999.99 -999.99    0.00000     0.00            4.87174E-12    58.49    0.00000E+00     0.00
 -175.00    25.00     -21.26 -999.99  -21.26    0.00000     0.00  LINEAR    4.43484E-02  -119.77    0.00000E+00     0.00
 -170.00    25.00     -14.74 -999.99  -14.74    0.00000     0.00  LINEAR    9.38858E-02  -121.44    0.00000E+00     0.00
 -165.00    25.00     -11.07 -999.99  -11.07    0.00000     0.00  LINEAR    1.43269E-01  -124.56    0.00000E+00     0.00
 -160.00    25.00      -8.76 -999.99   -8.76    0.00000     0.00  LINEAR    1.87024E-01  -127.16    0.00000E+00     0.00
 -155.00    25.00      -7.17 -999.99   -7.17    0.00000     0.00  LINEAR    2.24429E-01  -128.11    0.00000E+00     0.00
 -150.00    25.00      -5.92 -999.99   -5.92    0.00000     0.00  LINEAR    2.59351E-01  -127.31    0.00000E+00     0.00
 -145.00    25.00      -4.75 -999.99   -4.75    0.00000     0.00  LINEAR    2.96713E-01  -125.48    0.00000E+00     0.00
 -140.00    25.00      -3.59 -999.99   -3.59    0.00000     0.00  LINEAR    3.38914E-01  -123.56    0.00000E+00     0.00
 -135.00    25.00      -2.49 -999.99   -2.49    0.00000     0.00  LINEAR    3.84984E-01  -122.13    0.00000E+00     0.00
 -130.00    25.00      -1.48 -999.99   -1.48    0.00000     0.00  LINEAR    4.32040E-01  -121.29    0.00000E+00     0.00
 -125.00    25.00      -0.63 -999.99   -0.63    0.00000     0.00  LINEAR    4.76913E-01  -120.90    0.00000E+00     0.00
 -120.00    25.00       0.07 -999.99    0.07    0.00000     0.00  LINEAR    5.16906E-01  -120.79    0.00000E+00     0.00
 -115.00    25.00       0.61 -999.99    0.61    0.00000     0.00  LINEAR    5.49967E-01  -120.90    0.00000E+00     0.00
 -110.00    25.00       1.00 -999.99    1.00    0.00000     0.00  LINEAR    5.74831E-01  -121.25    0.00000E+00     0.00
 -105.00    25.00       1.24 -999.99    1.24    0.00000     0.00  LINEAR    5.91481E-01  -121.97    0.00000E+00     0.00
 -100.00    25.00       1.40 -999.99    1.40    0.00000     0.00  LINEAR    6.01958E-01  -123.23    0.00000E+00     0.00
  -95.00    25.00       1.52 -999.99    1.52    0.00000     0.00  LINEAR    6.10815E-01  -125.03    0.00000E+00     0.00
  -90.00    25.00       1.71 -999.99    1.71    0.00000     0.00  LINEAR    6.23681E-01  -127.02    0.00000E+00     0.00
  -85.00    25.00       1.97 -999.99    1.97    0.00000     0.00  LINEAR    6.42798E-01  -128.37    0.00000E+00     0.00
  -80.00    25.00       2.22 -999.99    2.22    0.00000     0.00  LINEAR    6.61986E-01  -128.20    0.00000E+00     0.00
  -75.00    25.00       2.29 -999.99    2.29    0.00000     0.00  LINEAR    6.66876E-01  -126.22    0.00000E+00     0.00
  -70.00    25.00       1.97 -999.99    1.97    0.00000     0.00  LINEAR    6.42863E-01  -123.16    0.00000E+00     0.00
  -65.00    25.00       1.18 -999.99    1.18    0.00000     0.00  LINEAR    5.86898E-01  -120.67    0.00000E+00     0.00
  -60.00    25.00       0.06 -999.99    0.06    0.00000     0.00  LINEAR    5.16118E-01  -120.88    0.00000E+00     0.00
  -55.00    25.00      -0.90 -999.99   -0.90    0.00000     0.00  LINEAR    4.62225E-01  -124.43    0.00000E+00     0.00
  -50.00    25.00      -1.32 -999.99   -1.32    0.00000     0.00  LINEAR    4.40474E-01  -127.93    0.00000E+00     0.00
  -45.00    25.00      -1.59 -999.99   -1.59    0.00000     0.00  LINEAR    4.26984E-01  -127.47    0.00000E+00     0.00
  -40.00    25.00      -2.37 -999.99   -2.37    0.00000     0.00  LINEAR    3.90272E-01  -123.74    0.00000E+00     0.00
  -35.00    25.00      -3.92 -999.99   -3.92    0.00000     0.00  LINEAR    3.26313E-01  -120.38    0.00000E+00     0.00
  -30.00    25.00      -5.95 -999.99   -5.95    0.00000     0.00  LINEAR    2.58198E-01  -121.08    0.00000E+00     0.00
  -25.00    25.00      -7.74 -999.99   -7.74    0.00000     0.00  LINEAR    2.10350E-01  -125.54    0.00000E+00     0.00
  -20.00    25.00      -9.16 -999.99   -9.16    0.00000     0.00  LINEAR    1.78616E-01  -128.02    0.00000E+00     0.00
  -15.00    25.00     -11.15 -999.99  -11.15    0.00000     0.00  LINEAR    1.41966E-01  -125.90    0.00000E+00     0.00
  -10.00    25.00     -14.71 -999.99  -14.71    0.00000     0.00  LINEAR    9.42556E-02  -121.92    0.00000E+00     0.00
   -5.00    25.00     -21.26 -999.99  -21.26    0.00000     0.00  LINEAR    4.43116E-02  -119.85    0.00000E+00     0.00
    0.00    25.00    -999.99 -999.99 -999.99    0.00000     0.00            0.00000E+00     0.00    0.00000E+00     0.00
 -180.00    30.00    -999.99 -999.99 -999.99    0.00000     0.00            4.87174E-12    58.49    0.00000E+00     0.00
 -175.00    30.00     -21.28 -999.99  -21.28    0.00000     0.00  LINEAR    4.42079E-02  -119.77    0.00000E+00     0.00
 -170.00    30.00     -14.77 -999.99  -14.77    0.00000     0.00  LINEAR    9.35310E-02  -121.17    0.00000E+00     0.00
 -165.00    30.00     -11.06 -999.99  -11.06    0.00000     0.00  LINEAR    1.43385E-01  -124.06    0.00000E+00     0.00
 -160.00    30.00      -8.68 -999.99   -8.68    0.00000     0.00  LINEAR    1.88632E-01  -126.69    0.00000E+00     0.00
 -155.00    30.00      -7.04 -999.99   -7.04    0.00000     0.00  LINEAR    2.27861E-01  -128.03    0.00000E+00     0.00
 -150.00    30.00      -5.77 -999.99   -5.77    0.00000     0.00  LINEAR    2.63609E-01  -127.84    0.00000E+00     0.00
 -145.00    30.00      -4.66 -999.99   -4.66    0.00000     0.00  LINEAR    2.99862E-01  -126.59    0.00000E+00     0.00
 -140.00    30.00      -3.59 -999.99   -3.59    0.00000     0.00  LINEAR    3.39182E-01  -124.99    0.00000E+00     0.00
 -135.00    30.00      -2.56 -999.99   -2.56    0.00000     0.00  LINEAR    3.81527E-01  -123.61    0.00000E+00     0.00
 -130.00    30.00      -1.63 -999.99   -1.63    0.00000     0.00  LINEAR    4.24938E-01  -122.67    0.00000E+00     0.00
 -125.00    30.00      -0.81 -999.99   -0.81    0.00000     0.00  LINEAR    4.66792E-01  -122.17    0.00000E+00     0.00
 -120.00    30.00      -0.13 -999.99   -0.13    0.00000     0.00  LINEAR    5.04686E-01  -122.05    0.00000E+00     0.00
 -115.00    30.00       0.40 -999.99    0.40    0.00000     0.00  LINEAR    5.36904E-01  -122.28    0.00000E+00     0.00
 -110.00    30.00       0.81 -999.99    0.81    0.00000     0.00  LINEAR    5.62797E-01  -122.88    0.00000E+00     0.00
 -105.00    30.00       1.12 -999.99    1.12    0.00000     0.00  LINEAR    5.83259E-01  -123.91    0.00000E+00     0.00
 -100.00    30.00       1.38 -999.99    1.38    0.00000     0.00  LINEAR    6.01038E-01  -125.38    0.00000E+00     0.00
  -95.00    30.00       1.65 -999.99    1.65    0.00000     0.00  LINEAR    6.20031E-01  -127.02    0.00000E+00     0.00
  -90.00    30.00       1.97 -999.99    1.97    0.00000     0.00  LINEAR    6.42649E-01  -128.27    0.00000E+00     0.00
  -85.00    30.00       2.28 -999.99    2.28    0.00000     0.00  LINEAR    6.65975E-01  -128.42    0.00000E+00     0.00
  -80.00    30.00       2.46 -999.99    2.46    0.00000     0.00  LINEAR    6.80080E-01  -127.05    0.00000E+00     0.00
  -75.00    30.00       2.35 -999.99    2.35    0.00000     0.00  LINEAR    6.71670E-01  -124.43    0.00000E+00     0.00
  -70.00    30.00       1.83 -999.99    1.83    0.00000     0.00  LINEAR    6.32535E-01  -121.61    0.00000E+00     0.00
  -65.00    30.00       0.91 -999.99    0.91    0.00000     0.00  LINEAR    5.68826E-01  -120.34    0.00000E+00     0.00
  -60.00    30.00      -0.14 -999.99   -0.14    0.00000     0.00  LINEAR    5.04318E-01  -122.17    0.00000E+00     0.00
  -55.00    30.00      -0.83 -999.99   -0.83    0.00000     0.00  LINEAR    4.65868E-01  -126.16    0.00000E+00     0.00
  -50.00    30.00      -1.08 -999.99   -1.08    0.00000     0.00  LINEAR    4.52506E-01  -128.30    0.00000E+00     0.00
  -45.00    30.00      -1.44 -999.99   -1.44    0.00000     0.00  LINEAR    4.34143E-01  -126.48    0.00000E+00     0.00
  -40.00    30.00      -2.41 -999.99   -2.41    0.00000     0.00  LINEAR    3.88161E-01  -122.55    0.00000E+00     0.00
  -35.00    30.00      -4.09 -999.99   -4.09    0.00000     0.00  LINEAR    3.20025E-01  -120.08    0.00000E+00     0.00
  -30.00    30.00      -6.06 -999.99   -6.06    0.00000     0.00  LINEAR    2.55105E-01  -121.91    0.00000E+00     0.00
  -25.00    30.00      -7.67 -999.99   -7.67    0.00000     0.00  LINEAR    2.11985E-01  -126.35    0.00000E+00     0.00
  -20.00    30.00      -9.05 -999.99   -9.05    0.00000     0.00  LINEAR    1.80800E-01  -127.97    0.00000E+00     0.00
  -15.00    30.00     -11.12 -999.99  -11.12    0.00000     0.00  LINEAR    1.42496E-01  -125.44    0.00000E+00     0.00
  -10.00    30.00     -14.73 -999.99  -14.73    0.00000     0.00  LINEAR    9.39634E-02  -121.63    0.00000E+00     0.00
   -5.00    30.00     -21.29 -999.99  -21.29    0.00000     0.00  LINEAR    4.41733E-02  -119.85    0.00000E+00     0.00
    0.00    30.00    -999.99 -999.99 -999.99    0.00000     0.00            0.00000E+00     0.00    0.00000E+00     0.00
 -180.00    35.00    -999.99 -999.99 -999.99    0.00000     0.00            4.87174E-12    58.49    0.00000E+00     0.00
 -175.00    35.00     -21.32 -999.99  -21.32    0.00000     0.00  LINEAR    4.40445E-02  -119.78    0.00000E+00     0.00
 -170.00    35.00     -14.82 -999.99  -14.82    0.00000     0.00  LINEAR    9.30742E-02  -120.88    0.00000E+00     0.00
 -165.00    35.00     -11.07 -999.99  -11.07    0.00000     0.00  LINEAR    1.43327E-01  -123.47    0.00000E+00     0.00
 -160.00    35.00      -8.61 -999.99   -8.61    0.00000     0.00  LINEAR    1.90157E-01  -126.06    0.00000E+00     0.00
 -155.00    35.00      -6.90 -999.99   -6.90    0.00000     0.00  LINEAR    2.31663E-01  -127.71    0.00000E+00     0.00
 -150.00    35.00      -5.59 -999.99   -5.59    0.00000     0.00  LINEAR    2.69155E-01  -128.14    0.00000E+00     0.00
 -145.00    35.00      -4.49 -999.99   -4.49    0.00000     0.00  LINEAR    3.05518E-01  -127.57    0.00000E+00     0.00
 -140.00    35.00      -3.49 -999.99   -3.49    0.00000     0.00  LINEAR    3.43089E-01  -126.50    0.00000E+00     0.00
 -135.00    35.00      -2.54 -999.99   -2.54    0.00000     0.00  LINEAR    3.82478E-01  -125.42    0.00000E+00     0.00
 -130.00    35.00      -1.67 -999.99   -1.67    0.00000     0.00  LINEAR    4.22693E-01  -124.61    0.00000E+00     0.00
 -125.00    35.00      -0.90 -999.99   -0.90    0.00000     0.00  LINEAR    4.61963E-01  -124.17    0.00000E+00     0.00
 -120.00    35.00      -0.24 -999.99   -0.24    0.00000     0.00  LINEAR    4.98571E-01  -124.14    0.00000E+00     0.00
 -115.00    35.00       0.32 -999.99    0.32    0.00000     0.00  LINEAR    5.31466E-01  -124.50    0.00000E+00     0.00
 -110.00    35.00       0.78 -999.99    0.78    0.00000     0.00  LINEAR    5.60704E-01  -125.25    0.00000E+00     0.00
 -105.00    35.00       1.19 -999.99    1.19    0.00000     0.00  LINEAR    5.87630E-01  -126.32    0.00000E+00     0.00
 -100.00    35.00       1.58 -999.99    1.58    0.00000     0.00  LINEAR    6.14413E-01  -127.50    0.00000E+00     0.00
  -95.00    35.00       1.96 -999.99    1.96    0.00000     0.00  LINEAR    6.42429E-01  -128.37    0.00000E+00     0.00
  -90.00    35.00       2.32 -999.99    2.32    0.00000     0.00  LINEAR    6.69735E-01  -128.43    0.00000E+00     0.00
  -85.00    35.00       2.58 -999.99    2.58    0.00000     0.00  LINEAR    6.89363E-01  -127.30    0.00000E+00     0.00
  -80.00    35.00       2.59 -999.99    2.59    0.00000     0.00  LINEAR    6.90744E-01  -125.06    0.00000E+00     0.00
  -75.00    35.00       2.26 -999.99    2.26    0.00000     0.00  LINEAR    6.65020E-01  -122.37    0.00000E+00     0.00
  -70.00    35.00       1.55 -999.99    1.55    0.00000     0.00  LINEAR    6.12558E-01  -120.52    0.00000E+00     0.00
  -65.00    35.00       0.59 -999.99    0.59    0.00000     0.00  LINEAR    5.48576E-01  -121.02    0.00000E+00     0.00
  -60.00    35.00      -0.24 -999.99   -0.24    0.00000     0.00  LINEAR    4.98779E-01  -124.26    0.00000E+00     0.00
  -55.00    35.00      -0.62 -999.99   -0.62    0.00000     0.00  LINEAR    4.77083E-01  -127.68    0.00000E+00     0.00
  -50.00    35.00      -0.81 -999.99   -0.81    0.00000     0.00  LINEAR    4.66646E-01  -127.98    0.00000E+00     0.00
  -45.00    35.00      -1.35 -999.99   -1.35    0.00000     0.00  LINEAR    4.38814E-01  -125.03    0.00000E+00     0.00
  -40.00    35.00      -2.53 -999.99   -2.53    0.00000     0.00  LINEAR    3.82790E-01  -121.35    0.00000E+00     0.00
  -35.00    35.00      -4.30 -999.99   -4.30    0.00000     0.00  LINEAR    3.12476E-01  -120.16    0.00000E+00     0.00
  -30.00    35.00      -6.13 -999.99   -6.13    0.00000     0.00  LINEAR    2.52907E-01  -123.08    0.00000E+00     0.00
  -25.00    35.00      -7.56 -999.99   -7.56    0.00000     0.00  LINEAR    2.14671E-01  -127.13    0.00000E+00     0.00
  -20.00    35.00      -8.93 -999.99   -8.93    0.00000     0.00  LINEAR    1.83262E-01  -127.76    0.00000E+00     0.00
  -15.00    35.00     -11.09 -999.99  -11.09    0.00000     0.00  LINEAR    1.42935E-01  -124.89    0.00000E+00     0.00
  -10.00    35.00     -14.77 -999.99  -14.77    0.00000     0.00  LINEAR    9.35759E-02  -121.32    0.00000E+00     0.00
   -5.00    35.00     -21.32 -999.99  -21.32    0.00000     0.00  LINEAR    4.40125E-02  -119.85    0.00000E+00     0.00
    0.00    35.00    -999.99 -999.99 -999.99    0.00000     0.00            0.00000E+00     0.00    0.00000E+00     0.00
 -180.00    40.00    -999.99 -999.99 -999.99    0.00000     0.00            4.87174E-12    58.49    0.00000E+00     0.00
 -175.00    40.00     -21.35 -999.99  -21.35    0.00000     0.00  LINEAR    4.38598E-02  -119.80    0.00000E+00     0.00
 -170.00    40.00     -14.87 -999.99  -14.87    0.00000     0.00  LINEAR    9.25046E-02  -120.59    0.00000E+00     0.00
 -165.00    40.00     -11.09 -999.99  -11.09    0.00000     0.00  LINEAR    1.43011E-01  -122.82    0.00000E+00     0.00
 -160.00    40.00      -8.56 -999.99   -8.56    0.00000     0.00  LINEAR    1.91373E-01  -125.26    0.00000E+00     0.00
 -155.00    40.00      -6.76 -999.99   -6.76    0.00000     0.00  LINEAR    2.35458E-01  -127.10    0.00000E+00     0.00
 -150.00    40.00      -5.39 -999.99   -5.39    0.00000     0.00  LINEAR    2.75598E-01  -128.03    0.00000E+00     0.00
 -145.00    40.00      -4.27 -999.99   -4.27    0.00000     0.00  LINEAR    3.13609E-01  -128.14    0.00000E+00     0.00
 -140.00    40.00      -3.28 -999.99   -3.28    0.00000     0.00  LINEAR    3.51335E-01  -127.73    0.00000E+00     0.00
 -135.00    40.00      -2.38 -999.99   -2.38    0.00000     0.00  LINEAR    3.89688E-01  -127.15    0.00000E+00     0.00
 -130.00    40.00      -1.56 -999.99   -1.56    0.00000     0.00  LINEAR    4.28494E-01  -126.67    0.00000E+00     0.00
 -125.00    40.00      -0.81 -999.99   -0.81    0.00000     0.00  LINEAR    4.66938E-01  -126.45    0.00000E+00     0.00
 -120.00    40.00      -0.14 -999.99   -0.14    0.00000     0.00  LINEAR    5.04183E-01  -126.54    0.00000E+00     0.00
 -115.00    40.00       0.45 -999.99    0.45    0.00000     0.00  LINEAR    5.39868E-01  -126.93    0.00000E+00     0.00
 -110.00    40.00       0.99 -999.99    0.99    0.00000     0.00  LINEAR    5.74320E-01  -127.54    0.00000E+00     0.00
 -105.00    40.00       1.49 -999.99    1.49    0.00000     0.00  LINEAR    6.08252E-01  -128.17    0.00000E+00     0.00
 -100.00    40.00       1.95 -999.99    1.95    0.00000     0.00  LINEAR    6.41757E-01  -128.52    0.00000E+00     0.00
  -95.00    40.00       2.36 -999.99    2.36    0.00000     0.00  LINEAR    6.72756E-01  -128.24    0.00000E+00     0.00
  -90.00    40.00       2.66 -999.99    2.66    0.00000     0.00  LINEAR    6.95821E-01  -127.08    0.00000E+00     0.00
  -85.00    40.00       2.74 -999.99    2.74    0.00000     0.00  LINEAR    7.02792E-01  -125.06    0.00000E+00     0.00
  -80.00    40.00       2.53 -999.99    2.53    0.00000     0.00  LINEAR    6.86053E-01  -122.64    0.00000E+00     0.00
  -75.00    40.00       1.98 -999.99    1.98    0.00000     0.00  LINEAR    6.44000E-01  -120.74    0.00000E+00     0.00
  -70.00    40.00       1.17 -999.99    1.17    0.00000     0.00  LINEAR    5.86321E-01  -120.63    0.00000E+00     0.00
  -65.00    40.00       0.35 -999.99    0.35    0.00000     0.00  LINEAR    5.33818E-01  -123.04    0.00000E+00     0.00
  -60.00    40.00      -0.13 -999.99   -0.13    0.00000     0.00  LINEAR    5.04946E-01  -126.63    0.00000E+00     0.00
  -55.00    40.00      -0.30 -999.99   -0.30    0.00000     0.00  LINEAR    4.95171E-01  -128.35    0.00000E+00     0.00
  -50.00    40.00      -0.58 -999.99   -0.58    0.00000     0.00  LINEAR    4.79581E-01  -126.79    0.00000E+00     0.00
  -45.00    40.00      -1.35 -999.99   -1.35    0.00000     0.00  LINEAR    4.38594E-01  -123.26    0.00000E+00     0.00
  -40.00    40.00      -2.74 -999.99   -2.74    0.00000     0.00  LINEAR    3.73728E-01  -120.41    0.00000E+00     0.00
  -35.00    40.00      -4.52 -999.99   -4.52    0.00000     0.00  LINEAR    3.04664E-01  -120.80    0.00000E+00     0.00
  -30.00    40.00      -6.15 -999.99   -6.15    0.00000     0.00  LINEAR    2.52500E-01  -124.52    0.00000E+00     0.00
  -25.00    40.00      -7.41 -999.99   -7.41    0.00000     0.00  LINEAR    2.18496E-01  -127.74    0.00000E+00     0.00
  -20.00    40.00      -8.81 -999.99   -8.81    0.00000     0.00  LINEAR    1.85834E-01  -127.36    0.00000E+00     0.00
  -15.00    40.00     -11.08 -999.99  -11.08    0.00000     0.00  LINEAR    1.43191E-01  -124.25    0.00000E+00     0.00
  -10.00    40.00     -14.82 -999.99  -14.82    0.00000     0.00  LINEAR    9.30792E-02  -120.99    0.00000E+00     0.00
   -5.00    40.00     -21.36 -999.99  -21.36    0.00000     0.00  LINEAR    4.38310E-02  -119.88    0.00000E+00     0.00
    0.00    40.00    -999.99 -999.99 -999.99    0.00000     0.00            0.00000E+00     0.00    0.00000E+00     0.00
 -180.00    45.00    -999.99 -999.99 -999.99    0.00000     0.00            4.87174E-12    58.49    0.00000E+00     0.00
 -175.00    45.00     -21.39 -999.99  -21.39    0.00000     0.00  LINEAR    4.36564E-02  -119.83    0.00000E+00     0.00
 -170.00    45.00     -14.94 -999.99  -14.94    0.00000     0.00  LINEAR    9.18157E-02  -120.32    0.00000E+00     0.00
 -165.00    45.00     -11.13 -999.99  -11.13    0.00000     0.00  LINEAR    1.42359E-01  -122.13    0.00000E+00     0.00
 -160.00    45.00      -8.53 -999.99   -8.53    0.00000     0.00  LINEAR    1.92027E-01  -124.31    0.00000E+00     0.00
 -155.00    45.00      -6.64 -999.99   -6.64    0.00000     0.00  LINEAR    2.38722E-01  -126.17    0.00000E+00     0.00
 -150.00    45.00      -5.18 -999.99   -5.18    0.00000     0.00  LINEAR    2.82135E-01  -127.43    0.00000E+00     0.00
 -145.00    45.00      -4.00 -999.99   -4.00    0.00000     0.00  LINEAR    3.23202E-01  -128.07    0.00000E+00     0.00
 -140.00    45.00      -2.99 -999.99   -2.99    0.00000     0.00  LINEAR    3.63200E-01  -128.24    0.00000E+00     0.00
 -135.00    45.00      -2.09 -999.99   -2.09    0.00000     0.00  LINEAR    4.03047E-01  -128.19    0.00000E+00     0.00
 -130.00    45.00      -1.26 -999.99   -1.26    0.00000     0.00  LINEAR    4.43072E-01  -128.10    0.00000E+00     0.00
 -125.00    45.00      -0.51 -999.99   -0.51    0.00000     0.00  LINEAR    4.83178E-01  -128.09    0.00000E+00     0.00
 -120.00    45.00       0.18 -999.99    0.18    0.00000     0.00  LINEAR    5.23139E-01  -128.20    0.00000E+00     0.00
 -115.00    45.00       0.81 -999.99    0.81    0.00000     0.00  LINEAR    5.62784E-01  -128.38    0.00000E+00     0.00
 -110.00    45.00       1.40 -999.99    1.40    0.00000     0.00  LINEAR    6.01845E-01  -128.48    0.00000E+00     0.00
 -105.00    45.00       1.92 -999.99    1.92    0.00000     0.00  LINEAR    6.39374E-01  -128.32    0.00000E+00     0.00
 -100.00    45.00       2.36 -999.99    2.36    0.00000     0.00  LINEAR    6.72876E-01  -127.66    0.00000E+00     0.00
  -95.00    45.00       2.68 -999.99    2.68    0.00000     0.00  LINEAR    6.97681E-01  -126.36    0.00000E+00     0.00
  -90.00    45.00       2.80 -999.99    2.80    0.00000     0.00  LINEAR    7.07400E-01  -124.48    0.00000E+00     0.00
  -85.00    45.00       2.66 -999.99    2.66    0.00000     0.00  LINEAR    6.96130E-01  -122.37    0.00000E+00     0.00
  -80.00    45.00       2.23 -999.99    2.23    0.00000     0.00  LINEAR    6.62334E-01  -120.74    0.00000E+00     0.00
  -75.00    45.00       1.56 -999.99    1.56    0.00000     0.00  LINEAR    6.13011E-01  -120.57    0.00000E+00     0.00
  -70.00    45.00       0.84 -999.99    0.84    0.00000     0.00  LINEAR    5.64560E-01  -122.54    0.00000E+00     0.00
  -65.00    45.00       0.36 -999.99    0.36    0.00000     0.00  LINEAR    5.34376E-01  -125.89    0.00000E+00     0.00
  -60.00    45.00       0.20 -999.99    0.20    0.00000     0.00  LINEAR    5.24161E-01  -128.21    0.00000E+00     0.00
  -55.00    45.00       0.05 -999.99    0.05    0.00000     0.00  LINEAR    5.15381E-01  -127.71    0.00000E+00     0.00
  -50.00    45.00      -0.45 -999.99   -0.45    0.00000     0.00  LINEAR    4.86727E-01  -124.83    0.00000E+00     0.00
  -45.00    45.00      -1.49 -999.99   -1.49    0.00000     0.00  LINEAR    4.31612E-01  -121.51    0.00000E+00     0.00
  -40.00    45.00      -3.03 -999.99   -3.03    0.00000     0.00  LINEAR    3.61726E-01  -120.12    0.00000E+00     0.00
  -35.00    45.00      -4.70 -999.99   -4.70    0.00000     0.00  LINEAR    2.98344E-01  -122.15    0.00000E+00     0.00
  -30.00    45.00      -6.07 -999.99   -6.07    0.00000     0.00  LINEAR    2.54685E-01  -126.04    0.00000E+00     0.00
  -25.00    45.00      -7.22 -999.99   -7.22    0.00000     0.00  LINEAR    2.23315E-01  -128.05    0.00000E+00     0.00
  -20.00    45.00      -8.70 -999.99   -8.70    0.00000     0.00  LINEAR    1.88277E-01  -126.72    0.00000E+00     0.00
  -15.00    45.00     -11.08 -999.99  -11.08    0.00000     0.00  LINEAR    1.43167E-01  -123.52    0.00000E+00     0.00
  -10.00    45.00     -14.87 -999.99  -14.87    0.00000     0.00  LINEAR    9.24630E-02  -120.67    0.00000E+00     0.00
   -5.00    45.00     -21.40 -999.99  -21.40    0.00000     0.00  LINEAR    4.36310E-02  -119.92    0.00000E+00     0.00
    0.00    45.00    -999.99 -999.99 -999.99    0.00000     0.00            0.00000E+00     0.00    0.00000E+00     0.00
 -180.00    50.00    -999.99 -999.99 -999.99    0.00000     0.00            4.87174E-12    58.49    0.00000E+00     0.00
 -175.00    50.00     -21.44 -999.99  -21.44    0.00000     0.00  LINEAR    4.34371E-02  -119.90    0.00000E+00     0.00
 -170.00    50.00     -15.01 -999.99  -15.01    0.00000     0.00  LINEAR    9.10073E-02  -120.07    0.00000E+00     0.00
 -165.00    50.00     -11.19 -999.99  -11.19    0.00000     0.00  LINEAR    1.41309E-01  -121.44    0.00000E+00     0.00
 -160.00    50.00      -8.53 -999.99   -8.53    0.00000     0.00  LINEAR    1.91867E-01  -123.25    0.00000E+00     0.00
 -155.00    50.00      -6.56 -999.99   -6.56    0.00000     0.00  LINEAR    2.40844E-01  -124.96    0.00000E+00     0.00
 -150.00    50.00      -5.02 -999.99   -5.02    0.00000     0.00  LINEAR    2.87608E-01  -126.31    0.00000E+00     0.00
 -145.00    50.00      -3.76 -999.99   -3.76    0.00000     0.00  LINEAR    3.32487E-01  -127.22    0.00000E+00     0.00
 -140.00    50.00      -2.68 -999.99   -2.68    0.00000     0.00  LINEAR    3.76231E-01  -127.76    0.00000E+00     0.00
 -135.00    50.00      -1.74 -999.99   -1.74    0.00000     0.00  LINEAR    4.19542E-01  -128.05    0.00000E+00     0.00
 -130.00    50.00      -0.89 -999.99   -0.89    0.00000     0.00  LINEAR    4.62835E-01  -128.18    0.00000E+00     0.00
 -125.00    50.00      -0.11 -999.99   -0.11    0.00000     0.00  LINEAR    5.06185E-01  -128.21    0.00000E+00     0.00
 -120.00    50.00       0.60 -999.99    0.60    0.00000     0.00  LINEAR    5.49323E-01  -128.14    0.00000E+00     0.00
 -115.00    50.00       1.25 -999.99    1.25    0.00000     0.00  LINEAR    5.91509E-01  -127.90    0.00000E+00     0.00
 -110.00    50.00       1.81 -999.99    1.81    0.00000     0.00  LINEAR    6.31213E-01  -127.37    0.00000E+00     0.00
 -105.00    50.00       2.27 -999.99    2.27    0.00000     0.00  LINEAR    6.65700E-01  -126.44    0.00000E+00     0.00
 -100.00    50.00       2.59 -999.99    2.59    0.00000     0.00  LINEAR    6.90829E-01  -125.09    0.00000E+00     0.00
  -95.00    50.00       2.73 -999.99    2.73    0.00000     0.00  LINEAR    7.01593E-01  -123.39    0.00000E+00     0.00
  -90.00    50.00       2.63 -999.99    2.63    0.00000     0.00  LINEAR    6.93795E-01  -121.69    0.00000E+00     0.00
  -85.00    50.00       2.29 -999.99    2.29    0.00000     0.00  LINEAR    6.66882E-01  -120.55    0.00000E+00     0.00
  -80.00    50.00       1.75 -999.99    1.75    0.00000     0.00  LINEAR    6.26954E-01  -120.71    0.00000E+00     0.00
  -75.00    50.00       1.18 -999.99    1.18    0.00000     0.00  LINEAR    5.87303E-01  -122.66    0.00000E+00     0.00
  -70.00    50.00       0.80 -999.99    0.80    0.00000     0.00  LINEAR    5.62217E-01  -125.74    0.00000E+00     0.00
  -65.00    50.00       0.68 -999.99    0.68    0.00000     0.00  LINEAR    5.54472E-01  -128.08    0.00000E+00     0.00
  -60.00    50.00       0.62 -999.99    0.62    0.00000     0.00  LINEAR    5.50124E-01  -128.08    0.00000E+00     0.00
  -55.00    50.00       0.29 -999.99    0.29    0.00000     0.00  LINEAR    5.29847E-01  -125.77    0.00000E+00     0.00
  -50.00    50.00      -0.50 -999.99   -0.50    0.00000     0.00  LINEAR    4.83836E-01  -122.54    0.00000E+00     0.00
  -45.00    50.00      -1.77 -999.99   -1.77    0.00000     0.00  LINEAR    4.17802E-01  -120.33    0.00000E+00     0.00
  -40.00    50.00      -3.33 -999.99   -3.33    0.00000     0.00  LINEAR    3.49274E-01  -120.84    0.00000E+00     0.00
  -35.00    50.00      -4.78 -999.99   -4.78    0.00000     0.00  LINEAR    2.95722E-01  -124.07    0.00000E+00     0.00
  -30.00    50.00      -5.90 -999.99   -5.90    0.00000     0.00  LINEAR    2.59801E-01  -127.33    0.00000E+00     0.00
  -25.00    50.00      -7.01 -999.99   -7.01    0.00000     0.00  LINEAR    2.28704E-01  -127.93    0.00000E+00     0.00
  -20.00    50.00      -8.61 -999.99   -8.61    0.00000     0.00  LINEAR    1.90295E-01  -125.86    0.00000E+00     0.00
  -15.00    50.00     -11.10 -999.99  -11.10    0.00000     0.00  LINEAR    1.42774E-01  -122.75    0.00000E+00     0.00
  -10.00    50.00     -14.94 -999.99  -14.94    0.00000     0.00  LINEAR    9.17229E-02  -120.37    0.00000E+00     0.00
   -5.00    50.00     -21.44 -999.99  -21.44    0.00000     0.00  LINEAR    4.34157E-02  -119.98    0.00000E+00     0.00
    0.00    50.00    -999.99 -999.99 -999.99    0.00000     0.00            0.00000E+00     0.00    0.00000E+00     0.00
 -180.00    55.00    -999.99 -999.99 -999.99    0.00000     0.00            4.87174E-12    58.49    0.00000E+00     0.00
 -175.00    55.00     -21.48 -999.99  -21.48    0.00000     0.00  LINEAR    4.32056E-02  -119.99    0.00000E+00     0.00
 -170.00    55.00     -15.10 -999.99  -15.10    0.00000     0.00  LINEAR    9.00877E-02  -119.89    0.00000E+00     0.00
 -165.00    55.00     -11.28 -999.99  -11.28    0.00000     0.00  LINEAR    1.39828E-01  -120.80    0.00000E+00     0.00
 -160.00    55.00      -8.59 -999.99   -8.59    0.00000     0.00  LINEAR    1.90691E-01  -122.16    0.00000E+00     0.00
 -155.00    55.00      -6.55 -999.99   -6.55    0.00000     0.00  LINEAR    2.41227E-01  -123.56    0.00000E+00     0.00
 -150.00    55.00      -4.92 -999.99   -4.92    0.00000     0.00  LINEAR    2.90723E-01  -124.77    0.00000E+00     0.00
 -145.00    55.00      -3.59 -999.99   -3.59    0.00000     0.00  LINEAR    3.39121E-01  -125.67    0.00000E+00     0.00
 -140.00    55.00      -2.45 -999.99   -2.45    0.00000     0.00  LINEAR    3.86702E-01  -126.28    0.00000E+00     0.00
 -135.00    55.00      -1.45 -999.99   -1.45    0.00000     0.00  LINEAR    4.33763E-01  -126.62    0.00000E+00     0.00
 -130.00    55.00      -0.56 -999.99   -0.56    0.00000     0.00  LINEAR    4.80370E-01  -126.73    0.00000E+00     0.00
 -125.00    55.00       0.23 -999.99    0.23    0.00000     0.00  LINEAR    5.26178E-01  -126.60    0.00000E+00     0.00
 -120.00    55.00       0.93 -999.99    0.93    0.00000     0.00  LINEAR    5.70251E-01  -126.22    0.00000E+00     0.00
 -115.00    55.00       1.52 -999.99    1.52    0.00000     0.00  LINEAR    6.10860E-01  -125.56    0.00000E+00     0.00
 -110.00    55.00       2.00 -999.99    2.00    0.00000     0.00  LINEAR    6.45330E-01  -124.59    0.00000E+00     0.00
 -105.00    55.00       2.33 -999.99    2.33    0.00000     0.00  LINEAR    6.70134E-01  -123.35    0.00000E+00     0.00
 -100.00    55.00       2.48 -999.99    2.48    0.00000     0.00  LINEAR    6.81533E-01  -122.01    0.00000E+00     0.00
  -95.00    55.00       2.42 -999.99    2.42    0.00000     0.00  LINEAR    6.76998E-01  -120.87    0.00000E+00     0.00
  -90.00    55.00       2.16 -999.99    2.16    0.00000     0.00  LINEAR    6.57321E-01  -120.42    0.00000E+00     0.00
  -85.00    55.00       1.77 -999.99    1.77    0.00000     0.00  LINEAR    6.28560E-01  -121.19    0.00000E+00     0.00
  -80.00    55.00       1.39 -999.99    1.39    0.00000     0.00  LINEAR    6.01674E-01  -123.35    0.00000E+00     0.00
  -75.00    55.00       1.18 -999.99    1.18    0.00000     0.00  LINEAR    5.87082E-01  -126.19    0.00000E+00     0.00
  -70.00    55.00       1.16 -999.99    1.16    0.00000     0.00  LINEAR    5.85625E-01  -128.18    0.00000E+00     0.00
  -65.00    55.00       1.16 -999.99    1.16    0.00000     0.00  LINEAR    5.85496E-01  -128.16    0.00000E+00     0.00
  -60.00    55.00       0.93 -999.99    0.93    0.00000     0.00  LINEAR    5.70412E-01  -126.12    0.00000E+00     0.00
  -55.00    55.00       0.30 -999.99    0.30    0.00000     0.00  LINEAR    5.30787E-01  -123.13    0.00000E+00     0.00
  -50.00    55.00      -0.76 -999.99   -0.76    0.00000     0.00  LINEAR    4.69429E-01  -120.70    0.00000E+00     0.00
  -45.00    55.00      -2.15 -999.99   -2.15    0.00000     0.00  LINEAR    4.00254E-01  -120.37    0.00000E+00     0.00
  -40.00    55.00      -3.55 -999.99   -3.55    0.00000     0.00  LINEAR    3.40523E-01  -122.70    0.00000E+00     0.00
  -35.00    55.00      -4.69 -999.99   -4.69    0.00000     0.00  LINEAR    2.98575E-01  -126.14    0.00000E+00     0.00
  -30.00    55.00      -5.65 -999.99   -5.65    0.00000     0.00  LINEAR    2.67404E-01  -128.04    0.00000E+00     0.00
  -25.00    55.00      -6.81 -999.99   -6.81    0.00000     0.00  LINEAR    2.33974E-01  -127.32    0.00000E+00     0.00
  -20.00    55.00      -8.55 -999.99   -8.55    0.00000     0.00  LINEAR    1.91568E-01  -124.80    0.00000E+00     0.00
  -15.00    55.00     -11.15 -999.99  -11.15    0.00000     0.00  LINEAR    1.41938E-01  -121.96    0.00000E+00     0.00
  -10.00    55.00     -15.03 -999.99  -15.03    0.00000     0.00  LINEAR    9.08622E-02  -120.12    0.00000E+00     0.00
   -5.00    55.00     -21.49 -999.99  -21.49    0.00000     0.00  LINEAR    4.31885E-02  -120.07    0.00000E+00     0.00
    0.00    55.00    -999.99 -999.99 -999.99    0.00000     0.00            0.00000E+00     0.00    0.00000E+00     0.00
 -180.00    60.00    -999.99 -999.99 -999.99    0.00000     0.00            4.87174E-12    58.49    0.00000E+00     0.00
 -175.00    60.00     -21.53 -999.99  -21.53    0.00000     0.00  LINEAR    4.29660E-02  -120.11    0.00000E+00     0.00
 -170.00    60.00     -15.20 -999.99  -15.20    0.00000     0.00  LINEAR    8.90751E-02  -119.80    0.00000E+00     0.00
 -165.00    60.00     -11.40 -999.99  -11.40    0.00000     0.00  LINEAR    1.37925E-01  -120.27    0.00000E+00     0.00
 -160.00    60.00      -8.69 -999.99   -8.69    0.00000     0.00  LINEAR    1.88397E-01  -121.15    0.00000E+00     0.00
 -155.00    60.00      -6.61 -999.99   -6.61    0.00000     0.00  LINEAR    2.39436E-01  -122.13    0.00000E+00     0.00
 -150.00    60.00      -4.93 -999.99   -4.93    0.00000     0.00  LINEAR    2.90368E-01  -123.01    0.00000E+00     0.00
 -145.00    60.00      -3.54 -999.99   -3.54    0.00000     0.00  LINEAR    3.40870E-01  -123.68    0.00000E+00     0.00
 -140.00    60.00      -2.36 -999.99   -2.36    0.00000     0.00  LINEAR    3.90773E-01  -124.11    0.00000E+00     0.00
 -135.00    60.00      -1.33 -999.99   -1.33    0.00000     0.00  LINEAR    4.39820E-01  -124.28    0.00000E+00     0.00
 -130.00    60.00      -0.44 -999.99   -0.44    0.00000     0.00  LINEAR    4.87436E-01  -124.20    0.00000E+00     0.00
 -125.00    60.00       0.33 -999.99    0.33    0.00000     0.00  LINEAR    5.32535E-01  -123.85    0.00000E+00     0.00
 -120.00    60.00       0.98 -999.99    0.98    0.00000     0.00  LINEAR    5.73389E-01  -123.26    0.00000E+00     0.00
 -115.00    60.00       1.48 -999.99    1.48    0.00000     0.00  LINEAR    6.07618E-01  -122.46    0.00000E+00     0.00
 -110.00    60.00       1.83 -999.99    1.83    0.00000     0.00  LINEAR    6.32465E-01  -121.57    0.00000E+00     0.00
 -105.00    60.00       2.00 -999.99    2.00    0.00000     0.00  LINEAR    6.45501E-01  -120.78    0.00000E+00     0.00
 -100.00    60.00       2.01 -999.99    2.01    0.00000     0.00  LINEAR    6.45842E-01  -120.40    0.00000E+00     0.00
  -95.00    60.00       1.87 -999.99    1.87    0.00000     0.00  LINEAR    6.35653E-01  -120.80    0.00000E+00     0.00
  -90.00    60.00       1.67 -999.99    1.67    0.00000     0.00  LINEAR    6.21019E-01  -122.26    0.00000E+00     0.00
  -85.00    60.00       1.52 -999.99    1.52    0.00000     0.00  LINEAR    6.10483E-01  -124.63    0.00000E+00     0.00
  -80.00    60.00       1.51 -999.99    1.51    0.00000     0.00  LINEAR    6.10042E-01  -127.06    0.00000E+00     0.00
  -75.00    60.00       1.62 -999.99    1.62    0.00000     0.00  LINEAR    6.17350E-01  -128.42    0.00000E+00     0.00
  -70.00    60.00       1.67 -999.99    1.67    0.00000     0.00  LINEAR    6.21402E-01  -127.99    0.00000E+00     0.00
  -65.00    60.00       1.50 -999.99    1.50    0.00000     0.00  LINEAR    6.09050E-01  -125.95    0.00000E+00     0.00
  -60.00    60.00       0.97 -999.99    0.97    0.00000     0.00  LINEAR    5.72781E-01  -123.17    0.00000E+00     0.00
  -55.00    60.00       0.04 -999.99    0.04    0.00000     0.00  LINEAR    5.14979E-01  -120.87    0.00000E+00     0.00
  -50.00    60.00      -1.18 -999.99   -1.18    0.00000     0.00  LINEAR    4.47384E-01  -120.29    0.00000E+00     0.00
  -45.00    60.00      -2.47 -999.99   -2.47    0.00000     0.00  LINEAR    3.85645E-01  -122.06    0.00000E+00     0.00
  -40.00    60.00      -3.57 -999.99   -3.57    0.00000     0.00  LINEAR    3.39807E-01  -125.24    0.00000E+00     0.00
  -35.00    60.00      -4.45 -999.99   -4.45    0.00000     0.00  LINEAR    3.07080E-01  -127.69    0.00000E+00     0.00
  -30.00    60.00      -5.37 -999.99   -5.37    0.00000     0.00  LINEAR    2.76188E-01  -127.95    0.00000E+00     0.00
  -25.00    60.00      -6.65 -999.99   -6.65    0.00000     0.00  LINEAR    2.38269E-01  -126.24    0.00000E+00     0.00
  -20.00    60.00      -8.54 -999.99   -8.54    0.00000     0.00  LINEAR    1.91801E-01  -123.61    0.00000E+00     0.00
  -15.00    60.00     -11.23 -999.99  -11.23    0.00000     0.00  LINEAR    1.40620E-01  -121.22    0.00000E+00     0.00
  -10.00    60.00     -15.12 -999.99  -15.12    0.00000     0.00  LINEAR    8.98938E-02  -119.94    0.00000E+00     0.00
   -5.00    60.00     -21.53 -999.99  -21.53    0.00000     0.00  LINEAR    4.29537E-02  -120.20    0.00000E+00     0.00
    0.00    60.00    -999.99 -999.99 -999.99    0.00000     0.00            0.00000E+00     0.00    0.00000E+00     0.00
 -180.00    65.00    -999.99 -999.99 -999.99    0.00000     0.00            4.87174E-12    58.49    0.00000E+00     0.00
 -175.00    65.00     -21.58 -999.99  -21.58    0.00000     0.00  LINEAR    4.27233E-02  -120.27    0.00000E+00     0.00
 -170.00    65.00     -15.30 -999.99  -15.30    0.00000     0.00  LINEAR    8.79986E-02  -119.81    0.00000E+00     0.00
 -165.00    65.00     -11.54 -999.99  -11.54    0.00000     0.00  LINEAR    1.35663E-01  -119.92    0.00000E+00     0.00
 -160.00    65.00      -8.85 -999.99   -8.85    0.00000     0.00  LINEAR    1.85032E-01  -120.35    0.00000E+00     0.00
 -155.00    65.00      -6.76 -999.99   -6.76    0.00000     0.00  LINEAR    2.35357E-01  -120.88    0.00000E+00     0.00
 -150.00    65.00      -5.07 -999.99   -5.07    0.00000     0.00  LINEAR    2.86002E-01  -121.36    0.00000E+00     0.00
[...]
  -70.00   340.00       2.00 -999.99    2.00    0.00000     0.00  LINEAR    6.45057E-01  -124.63    0.00000E+00     0.00
  -65.00   340.00       1.36 -999.99    1.36    0.00000     0.00  LINEAR    5.99572E-01  -121.49    0.00000E+00     0.00
  -60.00   340.00       0.27 -999.99    0.27    0.00000     0.00  LINEAR    5.28955E-01  -120.36    0.00000E+00     0.00
  -55.00   340.00      -0.86 -999.99   -0.86    0.00000     0.00  LINEAR    4.64052E-01  -122.96    0.00000E+00     0.00
  -50.00   340.00      -1.48 -999.99   -1.48    0.00000     0.00  LINEAR    4.32006E-01  -127.16    0.00000E+00     0.00
  -45.00   340.00      -1.74 -999.99   -1.74    0.00000     0.00  LINEAR    4.19423E-01  -128.01    0.00000E+00     0.00
  -40.00   340.00      -2.37 -999.99   -2.37    0.00000     0.00  LINEAR    3.90113E-01  -124.76    0.00000E+00     0.00
  -35.00   340.00      -3.80 -999.99   -3.80    0.00000     0.00  LINEAR    3.31001E-01  -120.85    0.00000E+00     0.00
  -30.00   340.00      -5.85 -999.99   -5.85    0.00000     0.00  LINEAR    2.61433E-01  -120.55    0.00000E+00     0.00
  -25.00   340.00      -7.77 -999.99   -7.77    0.00000     0.00  LINEAR    2.09536E-01  -124.81    0.00000E+00     0.00
  -20.00   340.00      -9.24 -999.99   -9.24    0.00000     0.00  LINEAR    1.76805E-01  -127.97    0.00000E+00     0.00
  -15.00   340.00     -11.18 -999.99  -11.18    0.00000     0.00  LINEAR    1.41424E-01  -126.25    0.00000E+00     0.00
  -10.00   340.00     -14.69 -999.99  -14.69    0.00000     0.00  LINEAR    9.44677E-02  -122.16    0.00000E+00     0.00
   -5.00   340.00     -21.24 -999.99  -21.24    0.00000     0.00  LINEAR    4.44261E-02  -119.86    0.00000E+00     0.00
    0.00   340.00    -999.99 -999.99 -999.99    0.00000     0.00            0.00000E+00     0.00    0.00000E+00     0.00
 -180.00   345.00    -999.99 -999.99 -999.99    0.00000     0.00            4.87174E-12    58.49    0.00000E+00     0.00
 -175.00   345.00     -21.22 -999.99  -21.22    0.00000     0.00  LINEAR    4.45557E-02  -119.79    0.00000E+00     0.00
 -170.00   345.00     -14.70 -999.99  -14.70    0.00000     0.00  LINEAR    9.43418E-02  -121.86    0.00000E+00     0.00
 -165.00   345.00     -11.10 -999.99  -11.10    0.00000     0.00  LINEAR    1.42819E-01  -125.28    0.00000E+00     0.00
 -160.00   345.00      -8.89 -999.99   -8.89    0.00000     0.00  LINEAR    1.84233E-01  -127.69    0.00000E+00     0.00
 -155.00   345.00      -7.37 -999.99   -7.37    0.00000     0.00  LINEAR    2.19413E-01  -127.89    0.00000E+00     0.00
 -150.00   345.00      -6.08 -999.99   -6.08    0.00000     0.00  LINEAR    2.54574E-01  -126.09    0.00000E+00     0.00
 -145.00   345.00      -4.78 -999.99   -4.78    0.00000     0.00  LINEAR    2.95627E-01  -123.61    0.00000E+00     0.00
 -140.00   345.00      -3.47 -999.99   -3.47    0.00000     0.00  LINEAR    3.43772E-01  -121.64    0.00000E+00     0.00
 -135.00   345.00      -2.24 -999.99   -2.24    0.00000     0.00  LINEAR    3.96082E-01  -120.58    0.00000E+00     0.00
 -130.00   345.00      -1.16 -999.99   -1.16    0.00000     0.00  LINEAR    4.48466E-01  -120.22    0.00000E+00     0.00
 -125.00   345.00      -0.26 -999.99   -0.26    0.00000     0.00  LINEAR    4.97528E-01  -120.22    0.00000E+00     0.00
 -120.00   345.00       0.47 -999.99    0.47    0.00000     0.00  LINEAR    5.40837E-01  -120.31    0.00000E+00     0.00
 -115.00   345.00       1.02 -999.99    1.02    0.00000     0.00  LINEAR    5.76509E-01  -120.35    0.00000E+00     0.00
 -110.00   345.00       1.41 -999.99    1.41    0.00000     0.00  LINEAR    6.02849E-01  -120.35    0.00000E+00     0.00
 -105.00   345.00       1.63 -999.99    1.63    0.00000     0.00  LINEAR    6.18473E-01  -120.43    0.00000E+00     0.00
 -100.00   345.00       1.70 -999.99    1.70    0.00000     0.00  LINEAR    6.23191E-01  -120.86    0.00000E+00     0.00
  -95.00   345.00       1.65 -999.99    1.65    0.00000     0.00  LINEAR    6.19586E-01  -121.98    0.00000E+00     0.00
  -90.00   345.00       1.57 -999.99    1.57    0.00000     0.00  LINEAR    6.14270E-01  -123.98    0.00000E+00     0.00
  -85.00   345.00       1.60 -999.99    1.60    0.00000     0.00  LINEAR    6.16115E-01  -126.47    0.00000E+00     0.00
  -80.00   345.00       1.78 -999.99    1.78    0.00000     0.00  LINEAR    6.29082E-01  -128.28    0.00000E+00     0.00
  -75.00   345.00       1.99 -999.99    1.99    0.00000     0.00  LINEAR    6.44364E-01  -128.13    0.00000E+00     0.00
  -70.00   345.00       1.96 -999.99    1.96    0.00000     0.00  LINEAR    6.42479E-01  -125.78    0.00000E+00     0.00
  -65.00   345.00       1.47 -999.99    1.47    0.00000     0.00  LINEAR    6.06892E-01  -122.40    0.00000E+00     0.00
  -60.00   345.00       0.45 -999.99    0.45    0.00000     0.00  LINEAR    5.39735E-01  -120.33    0.00000E+00     0.00
  -55.00   345.00      -0.78 -999.99   -0.78    0.00000     0.00  LINEAR    4.68432E-01  -121.93    0.00000E+00     0.00
  -50.00   345.00      -1.59 -999.99   -1.59    0.00000     0.00  LINEAR    4.27003E-01  -126.31    0.00000E+00     0.00
  -45.00   345.00      -1.88 -999.99   -1.88    0.00000     0.00  LINEAR    4.12860E-01  -128.23    0.00000E+00     0.00
  -40.00   345.00      -2.40 -999.99   -2.40    0.00000     0.00  LINEAR    3.88775E-01  -125.53    0.00000E+00     0.00
  -35.00   345.00      -3.71 -999.99   -3.71    0.00000     0.00  LINEAR    3.34177E-01  -121.33    0.00000E+00     0.00
  -30.00   345.00      -5.75 -999.99   -5.75    0.00000     0.00  LINEAR    2.64291E-01  -120.26    0.00000E+00     0.00
  -25.00   345.00      -7.78 -999.99   -7.78    0.00000     0.00  LINEAR    2.09265E-01  -124.20    0.00000E+00     0.00
  -20.00   345.00      -9.31 -999.99   -9.31    0.00000     0.00  LINEAR    1.75410E-01  -127.88    0.00000E+00     0.00
  -15.00   345.00     -11.21 -999.99  -11.21    0.00000     0.00  LINEAR    1.40938E-01  -126.51    0.00000E+00     0.00
  -10.00   345.00     -14.67 -999.99  -14.67    0.00000     0.00  LINEAR    9.46146E-02  -122.36    0.00000E+00     0.00
   -5.00   345.00     -21.22 -999.99  -21.22    0.00000     0.00  LINEAR    4.45158E-02  -119.87    0.00000E+00     0.00
    0.00   345.00    -999.99 -999.99 -999.99    0.00000     0.00            0.00000E+00     0.00    0.00000E+00     0.00
 -180.00   350.00    -999.99 -999.99 -999.99    0.00000     0.00            4.87174E-12    58.49    0.00000E+00     0.00
 -175.00   350.00     -21.20 -999.99  -21.20    0.00000     0.00  LINEAR    4.46212E-02  -119.80    0.00000E+00     0.00
 -170.00   350.00     -14.69 -999.99  -14.69    0.00000     0.00  LINEAR    9.44682E-02  -122.00    0.00000E+00     0.00
 -165.00   350.00     -11.11 -999.99  -11.11    0.00000     0.00  LINEAR    1.42609E-01  -125.50    0.00000E+00     0.00
 -160.00   350.00      -8.93 -999.99   -8.93    0.00000     0.00  LINEAR    1.83270E-01  -127.82    0.00000E+00     0.00
 -155.00   350.00      -7.43 -999.99   -7.43    0.00000     0.00  LINEAR    2.17912E-01  -127.73    0.00000E+00     0.00
 -150.00   350.00      -6.11 -999.99   -6.11    0.00000     0.00  LINEAR    2.53553E-01  -125.63    0.00000E+00     0.00
 -145.00   350.00      -4.76 -999.99   -4.76    0.00000     0.00  LINEAR    2.96220E-01  -123.02    0.00000E+00     0.00
 -140.00   350.00      -3.40 -999.99   -3.40    0.00000     0.00  LINEAR    3.46450E-01  -121.15    0.00000E+00     0.00
 -135.00   350.00      -2.14 -999.99   -2.14    0.00000     0.00  LINEAR    4.00611E-01  -120.30    0.00000E+00     0.00
 -130.00   350.00      -1.05 -999.99   -1.05    0.00000     0.00  LINEAR    4.54339E-01  -120.16    0.00000E+00     0.00
 -125.00   350.00      -0.14 -999.99   -0.14    0.00000     0.00  LINEAR    5.04340E-01  -120.33    0.00000E+00     0.00
 -120.00   350.00       0.59 -999.99    0.59    0.00000     0.00  LINEAR    5.48437E-01  -120.51    0.00000E+00     0.00
 -115.00   350.00       1.15 -999.99    1.15    0.00000     0.00  LINEAR    5.84967E-01  -120.56    0.00000E+00     0.00
 -110.00   350.00       1.54 -999.99    1.54    0.00000     0.00  LINEAR    6.12261E-01  -120.48    0.00000E+00     0.00
 -105.00   350.00       1.77 -999.99    1.77    0.00000     0.00  LINEAR    6.28638E-01  -120.38    0.00000E+00     0.00
 -100.00   350.00       1.84 -999.99    1.84    0.00000     0.00  LINEAR    6.33168E-01  -120.52    0.00000E+00     0.00
  -95.00   350.00       1.76 -999.99    1.76    0.00000     0.00  LINEAR    6.27349E-01  -121.27    0.00000E+00     0.00
  -90.00   350.00       1.61 -999.99    1.61    0.00000     0.00  LINEAR    6.17013E-01  -122.98    0.00000E+00     0.00
  -85.00   350.00       1.54 -999.99    1.54    0.00000     0.00  LINEAR    6.11946E-01  -125.53    0.00000E+00     0.00
  -80.00   350.00       1.65 -999.99    1.65    0.00000     0.00  LINEAR    6.19541E-01  -127.85    0.00000E+00     0.00
  -75.00   350.00       1.86 -999.99    1.86    0.00000     0.00  LINEAR    6.34719E-01  -128.41    0.00000E+00     0.00
  -70.00   350.00       1.91 -999.99    1.91    0.00000     0.00  LINEAR    6.38381E-01  -126.54    0.00000E+00     0.00
  -65.00   350.00       1.52 -999.99    1.52    0.00000     0.00  LINEAR    6.10363E-01  -123.15    0.00000E+00     0.00
  -60.00   350.00       0.57 -999.99    0.57    0.00000     0.00  LINEAR    5.47326E-01  -120.50    0.00000E+00     0.00
  -55.00   350.00      -0.70 -999.99   -0.70    0.00000     0.00  LINEAR    4.72969E-01  -121.32    0.00000E+00     0.00
  -50.00   350.00      -1.64 -999.99   -1.64    0.00000     0.00  LINEAR    4.24542E-01  -125.60    0.00000E+00     0.00
  -45.00   350.00      -1.98 -999.99   -1.98    0.00000     0.00  LINEAR    4.08004E-01  -128.25    0.00000E+00     0.00
  -40.00   350.00      -2.44 -999.99   -2.44    0.00000     0.00  LINEAR    3.87178E-01  -126.06    0.00000E+00     0.00
  -35.00   350.00      -3.66 -999.99   -3.66    0.00000     0.00  LINEAR    3.36125E-01  -121.73    0.00000E+00     0.00
  -30.00   350.00      -5.68 -999.99   -5.68    0.00000     0.00  LINEAR    2.66469E-01  -120.12    0.00000E+00     0.00
  -25.00   350.00      -7.78 -999.99   -7.78    0.00000     0.00  LINEAR    2.09275E-01  -123.77    0.00000E+00     0.00
  -20.00   350.00      -9.36 -999.99   -9.36    0.00000     0.00  LINEAR    1.74431E-01  -127.77    0.00000E+00     0.00
  -15.00   350.00     -11.24 -999.99  -11.24    0.00000     0.00  LINEAR    1.40556E-01  -126.69    0.00000E+00     0.00
  -10.00   350.00     -14.67 -999.99  -14.67    0.00000     0.00  LINEAR    9.47092E-02  -122.51    0.00000E+00     0.00
   -5.00   350.00     -21.21 -999.99  -21.21    0.00000     0.00  LINEAR    4.45803E-02  -119.87    0.00000E+00     0.00
    0.00   350.00    -999.99 -999.99 -999.99    0.00000     0.00            0.00000E+00     0.00    0.00000E+00     0.00
 -180.00   355.00    -999.99 -999.99 -999.99    0.00000     0.00            4.87174E-12    58.49    0.00000E+00     0.00
 -175.00   355.00     -21.20 -999.99  -21.20    0.00000     0.00  LINEAR    4.46605E-02  -119.81    0.00000E+00     0.00
 -170.00   355.00     -14.68 -999.99  -14.68    0.00000     0.00  LINEAR    9.45400E-02  -122.08    0.00000E+00     0.00
 -165.00   355.00     -11.12 -999.99  -11.12    0.00000     0.00  LINEAR    1.42467E-01  -125.63    0.00000E+00     0.00
 -160.00   355.00      -8.96 -999.99   -8.96    0.00000     0.00  LINEAR    1.82674E-01  -127.88    0.00000E+00     0.00
 -155.00   355.00      -7.46 -999.99   -7.46    0.00000     0.00  LINEAR    2.17040E-01  -127.61    0.00000E+00     0.00
 -150.00   355.00      -6.13 -999.99   -6.13    0.00000     0.00  LINEAR    2.53067E-01  -125.33    0.00000E+00     0.00
 -145.00   355.00      -4.74 -999.99   -4.74    0.00000     0.00  LINEAR    2.96789E-01  -122.68    0.00000E+00     0.00
 -140.00   355.00      -3.36 -999.99   -3.36    0.00000     0.00  LINEAR    3.48280E-01  -120.90    0.00000E+00     0.00
 -135.00   355.00      -2.08 -999.99   -2.08    0.00000     0.00  LINEAR    4.03476E-01  -120.20    0.00000E+00     0.00
 -130.00   355.00      -0.98 -999.99   -0.98    0.00000     0.00  LINEAR    4.57886E-01  -120.19    0.00000E+00     0.00
 -125.00   355.00      -0.07 -999.99   -0.07    0.00000     0.00  LINEAR    5.08316E-01  -120.46    0.00000E+00     0.00
 -120.00   355.00       0.66 -999.99    0.66    0.00000     0.00  LINEAR    5.52781E-01  -120.70    0.00000E+00     0.00
 -115.00   355.00       1.22 -999.99    1.22    0.00000     0.00  LINEAR    5.89782E-01  -120.77    0.00000E+00     0.00
 -110.00   355.00       1.62 -999.99    1.62    0.00000     0.00  LINEAR    6.17705E-01  -120.66    0.00000E+00     0.00
 -105.00   355.00       1.86 -999.99    1.86    0.00000     0.00  LINEAR    6.34731E-01  -120.46    0.00000E+00     0.00
 -100.00   355.00       1.92 -999.99    1.92    0.00000     0.00  LINEAR    6.39518E-01  -120.42    0.00000E+00     0.00
  -95.00   355.00       1.83 -999.99    1.83    0.00000     0.00  LINEAR    6.32870E-01  -120.93    0.00000E+00     0.00
  -90.00   355.00       1.65 -999.99    1.65    0.00000     0.00  LINEAR    6.19946E-01  -122.42    0.00000E+00     0.00
  -85.00   355.00       1.52 -999.99    1.52    0.00000     0.00  LINEAR    6.10715E-01  -124.92    0.00000E+00     0.00
  -80.00   355.00       1.58 -999.99    1.58    0.00000     0.00  LINEAR    6.14438E-01  -127.49    0.00000E+00     0.00
  -75.00   355.00       1.77 -999.99    1.77    0.00000     0.00  LINEAR    6.28649E-01  -128.48    0.00000E+00     0.00
  -70.00   355.00       1.86 -999.99    1.86    0.00000     0.00  LINEAR    6.35077E-01  -126.96    0.00000E+00     0.00
  -65.00   355.00       1.54 -999.99    1.54    0.00000     0.00  LINEAR    6.11657E-01  -123.62    0.00000E+00     0.00
  -60.00   355.00       0.64 -999.99    0.64    0.00000     0.00  LINEAR    5.51686E-01  -120.69    0.00000E+00     0.00
  -55.00   355.00      -0.64 -999.99   -0.64    0.00000     0.00  LINEAR    4.76172E-01  -121.00    0.00000E+00     0.00
  -50.00   355.00      -1.66 -999.99   -1.66    0.00000     0.00  LINEAR    4.23571E-01  -125.14    0.00000E+00     0.00
  -45.00   355.00      -2.04 -999.99   -2.04    0.00000     0.00  LINEAR    4.05086E-01  -128.21    0.00000E+00     0.00
  -40.00   355.00      -2.46 -999.99   -2.46    0.00000     0.00  LINEAR    3.85972E-01  -126.36    0.00000E+00     0.00
  -35.00   355.00      -3.64 -999.99   -3.64    0.00000     0.00  LINEAR    3.37148E-01  -121.99    0.00000E+00     0.00
  -30.00   355.00      -5.64 -999.99   -5.64    0.00000     0.00  LINEAR    2.67815E-01  -120.06    0.00000E+00     0.00
  -25.00   355.00      -7.78 -999.99   -7.78    0.00000     0.00  LINEAR    2.09364E-01  -123.51    0.00000E+00     0.00
  -20.00   355.00      -9.39 -999.99   -9.39    0.00000     0.00  LINEAR    1.73855E-01  -127.70    0.00000E+00     0.00
  -15.00   355.00     -11.25 -999.99  -11.25    0.00000     0.00  LINEAR    1.40314E-01  -126.79    0.00000E+00     0.00
  -10.00   355.00     -14.66 -999.99  -14.66    0.00000     0.00  LINEAR    9.47618E-02  -122.60    0.00000E+00     0.00
   -5.00   355.00     -21.20 -999.99  -21.20    0.00000     0.00  LINEAR    4.46190E-02  -119.88    0.00000E+00     0.00
    0.00   355.00    -999.99 -999.99 -999.99    0.00000     0.00            0.00000E+00     0.00    0.00000E+00     0.00
 -180.00   360.00    -999.99 -999.99 -999.99    0.00000     0.00            4.87174E-12    58.49    0.00000E+00     0.00
 -175.00   360.00     -21.19 -999.99  -21.19    0.00000     0.00  LINEAR    4.46737E-02  -119.81    0.00000E+00     0.00
 -170.00   360.00     -14.68 -999.99  -14.68    0.00000     0.00  LINEAR    9.45632E-02  -122.11    0.00000E+00     0.00
 -165.00   360.00     -11.12 -999.99  -11.12    0.00000     0.00  LINEAR    1.42417E-01  -125.68    0.00000E+00     0.00
 -160.00   360.00      -8.97 -999.99   -8.97    0.00000     0.00  LINEAR    1.82473E-01  -127.90    0.00000E+00     0.00
 -155.00   360.00      -7.47 -999.99   -7.47    0.00000     0.00  LINEAR    2.16755E-01  -127.57    0.00000E+00     0.00
 -150.00   360.00      -6.13 -999.99   -6.13    0.00000     0.00  LINEAR    2.52927E-01  -125.23    0.00000E+00     0.00
 -145.00   360.00      -4.74 -999.99   -4.74    0.00000     0.00  LINEAR    2.97014E-01  -122.56    0.00000E+00     0.00
 -140.00   360.00      -3.34 -999.99   -3.34    0.00000     0.00  LINEAR    3.48923E-01  -120.82    0.00000E+00     0.00
 -135.00   360.00      -2.06 -999.99   -2.06    0.00000     0.00  LINEAR    4.04449E-01  -120.17    0.00000E+00     0.00
 -130.00   360.00      -0.96 -999.99   -0.96    0.00000     0.00  LINEAR    4.59063E-01  -120.22    0.00000E+00     0.00
 -125.00   360.00      -0.05 -999.99   -0.05    0.00000     0.00  LINEAR    5.09612E-01  -120.52    0.00000E+00     0.00
 -120.00   360.00       0.68 -999.99    0.68    0.00000     0.00  LINEAR    5.54179E-01  -120.78    0.00000E+00     0.00
 -115.00   360.00       1.24 -999.99    1.24    0.00000     0.00  LINEAR    5.91326E-01  -120.85    0.00000E+00     0.00
 -110.00   360.00       1.65 -999.99    1.65    0.00000     0.00  LINEAR    6.19464E-01  -120.73    0.00000E+00     0.00
 -105.00   360.00       1.89 -999.99    1.89    0.00000     0.00  LINEAR    6.36736E-01  -120.50    0.00000E+00     0.00
 -100.00   360.00       1.95 -999.99    1.95    0.00000     0.00  LINEAR    6.41667E-01  -120.40    0.00000E+00     0.00
  -95.00   360.00       1.86 -999.99    1.86    0.00000     0.00  LINEAR    6.34828E-01  -120.84    0.00000E+00     0.00
  -90.00   360.00       1.67 -999.99    1.67    0.00000     0.00  LINEAR    6.21126E-01  -122.25    0.00000E+00     0.00
  -85.00   360.00       1.52 -999.99    1.52    0.00000     0.00  LINEAR    6.10527E-01  -124.71    0.00000E+00     0.00
  -80.00   360.00       1.55 -999.99    1.55    0.00000     0.00  LINEAR    6.12868E-01  -127.35    0.00000E+00     0.00
  -75.00   360.00       1.75 -999.99    1.75    0.00000     0.00  LINEAR    6.26603E-01  -128.49    0.00000E+00     0.00
  -70.00   360.00       1.85 -999.99    1.85    0.00000     0.00  LINEAR    6.33844E-01  -127.09    0.00000E+00     0.00
  -65.00   360.00       1.54 -999.99    1.54    0.00000     0.00  LINEAR    6.11952E-01  -123.79    0.00000E+00     0.00
  -60.00   360.00       0.66 -999.99    0.66    0.00000     0.00  LINEAR    5.53093E-01  -120.76    0.00000E+00     0.00
  -55.00   360.00      -0.62 -999.99   -0.62    0.00000     0.00  LINEAR    4.77310E-01  -120.91    0.00000E+00     0.00
  -50.00   360.00      -1.66 -999.99   -1.66    0.00000     0.00  LINEAR    4.23336E-01  -124.99    0.00000E+00     0.00
  -45.00   360.00      -2.06 -999.99   -2.06    0.00000     0.00  LINEAR    4.04120E-01  -128.18    0.00000E+00     0.00
  -40.00   360.00      -2.47 -999.99   -2.47    0.00000     0.00  LINEAR    3.85530E-01  -126.46    0.00000E+00     0.00
  -35.00   360.00      -3.63 -999.99   -3.63    0.00000     0.00  LINEAR    3.37462E-01  -122.09    0.00000E+00     0.00
  -30.00   360.00      -5.62 -999.99   -5.62    0.00000     0.00  LINEAR    2.68269E-01  -120.04    0.00000E+00     0.00
  -25.00   360.00      -7.77 -999.99   -7.77    0.00000     0.00  LINEAR    2.09408E-01  -123.42    0.00000E+00     0.00
  -20.00   360.00      -9.40 -999.99   -9.40    0.00000     0.00  LINEAR    1.73665E-01  -127.67    0.00000E+00     0.00
  -15.00   360.00     -11.26 -999.99  -11.26    0.00000     0.00  LINEAR    1.40231E-01  -126.82    0.00000E+00     0.00
  -10.00   360.00     -14.66 -999.99  -14.66    0.00000     0.00  LINEAR    9.47786E-02  -122.63    0.00000E+00     0.00
   -5.00   360.00     -21.20 -999.99  -21.20    0.00000     0.00  LINEAR    4.46320E-02  -119.88    0.00000E+00     0.00
    0.00   360.00    -999.99 -999.99 -999.99    0.00000     0.00            0.00000E+00     0.00    0.00000E+00     0.00


   AVERAGE POWER GAIN= 9.99492E-01       SOLID ANGLE USED IN AVERAGING=( 4.0000)*PI STERADIANS.








 ***** DATA CARD NO.  6   EN   0    37    73  1003 -1.80000E+02  0.00000E+00  5.00000E+00  5.00000E+00  0.00000E+00  0.00000E+00

 RUN TIME =     0.078
